*****


 42 46  0  0  0  0  0  0  0  0999 V2000
 -109.9370   60.4207  -47.8047 C   0  0  0  0  0  0  0  0  0  0  0  0
 -108.5564   60.5347  -48.0661 N   0  0  0  0  0  0  0  0  0  0  0  0
 -110.6850   61.3820  -47.6398 O   0  0  0  0  0  0  0  0  0  0  0  0
 -108.0369   59.6507  -48.1141 H   0  0  0  0  0  0  0  0  0  0  0  0
 -109.5441   57.9814  -47.5574 C   0  0  0  0  0  0  0  0  0  0  0  0
 -110.0195   56.6741  -47.4545 C   0  0  0  0  0  0  0  0  0  0  0  0
 -111.8129   58.7929  -47.7330 C   0  0  0  0  0  0  0  0  0  0  0  0
 -112.2885   57.4856  -47.6301 C   0  0  0  0  0  0  0  0  0  0  0  0
 -110.4407   59.0408  -47.6966 C   0  0  0  0  0  0  0  0  0  0  0  0
 -111.3917   56.4262  -47.4908 C   0  0  0  0  0  0  0  0  0  0  0  0
 -111.8650   55.0124  -47.3787 C   0  0  0  0  0  0  0  0  0  0  0  0
 -113.7008   57.2567  -47.6691 C   0  0  0  0  0  0  0  0  0  0  0  0
 -114.8862   57.0644  -47.7019 C   0  0  0  0  0  0  0  0  0  0  0  0
 -117.2978   57.7185  -48.0705 C   0  0  0  0  0  0  0  0  0  0  0  0
 -116.2975   56.8354  -47.7412 C   0  0  0  0  0  0  0  0  0  0  0  0
 -118.2941   55.8834  -47.6142 C   0  0  0  0  0  0  0  0  0  0  0  0
 -119.1635   54.7958  -47.3642 C   0  0  0  0  0  0  0  0  0  0  0  0
 -118.6547   53.6174  -46.9862 C   0  0  0  0  0  0  0  0  0  0  0  0
 -117.1804   53.5370  -46.8535 C   0  0  0  0  0  0  0  0  0  0  0  0
 -118.5310   57.1238  -47.9902 N   0  0  0  0  0  0  0  0  0  0  0  0
 -116.3366   54.4978  -47.0685 N   0  0  0  0  0  0  0  0  0  0  0  0
 -116.9380   55.6600  -47.4491 N   0  0  0  0  0  0  0  0  0  0  0  0
 -106.5149   63.5317  -47.3785 C   0  0  0  0  0  0  0  0  0  0  0  0
 -107.2688   62.3757  -47.1762 C   0  0  0  0  0  0  0  0  0  0  0  0
 -107.5853   62.1645  -49.5620 C   0  0  0  0  0  0  0  0  0  0  0  0
 -106.2964   64.0042  -48.6727 C   0  0  0  0  0  0  0  0  0  0  0  0
 -106.8315   63.3205  -49.7644 C   0  0  0  0  0  0  0  0  0  0  0  0
 -107.8040   61.6921  -48.2680 C   0  0  0  0  0  0  0  0  0  0  0  0
 -106.6088   63.8065  -51.1589 C   0  0  0  0  0  0  0  0  0  0  0  0
 -107.4917   63.2912  -52.0637 F   0  0  0  0  0  0  0  0  0  0  0  0
 -106.7150   65.1614  -51.2870 F   0  0  0  0  0  0  0  0  0  0  0  0
 -105.3696   63.4883  -51.6321 F   0  0  0  0  0  0  0  0  0  0  0  0
 -105.4830   65.2501  -48.8653 C   0  0  0  0  0  0  0  0  0  0  0  0
 -102.0833   65.5239  -50.5861 C   0  0  0  0  0  0  0  0  0  0  0  0
 -101.7692   64.5456  -48.3105 C   0  0  0  0  0  0  0  0  0  0  0  0
 -103.4997   65.9269  -50.2178 C   0  0  0  0  0  0  0  0  0  0  0  0
 -103.1859   64.9476  -47.9418 C   0  0  0  0  0  0  0  0  0  0  0  0
  -99.7859   65.2270  -49.6610 C   0  0  0  0  0  0  0  0  0  0  0  0
 -101.2286   65.5050  -49.3425 N   0  0  0  0  0  0  0  0  0  0  0  0
 -104.0412   64.9688  -49.1851 N   0  0  0  0  0  0  0  0  0  0  0  0
 -101.2603   66.4488  -48.9326 H   0  0  0  0  0  0  0  0  0  0  0  0
 -104.0118   64.0251  -49.5953 H   0  0  0  0  0  0  0  0  0  0  0  0
 12 13  3  0  0  0
 12  8  1  0  0  0
 13 15  1  0  0  0
  5  6  1  0  0  0
  5  9  2  0  0  0
  6 10  2  0  0  0
 23 24  1  0  0  0
 23 26  2  0  0  0
 24 28  2  0  0  0
  7  8  2  0  0  0
  7  9  1  0  0  0
 25 27  2  0  0  0
 25 28  1  0  0  0
 14 15  2  0  0  0
 14 20  1  0  0  0
  8 10  1  0  0  0
 15 22  1  0  0  0
  9  1  1  0  0  0
 10 11  1  0  0  0
 26 27  1  0  0  0
 26 33  1  0  0  0
 27 29  1  0  0  0
 28  2  1  0  0  0
 16 17  1  0  0  0
 16 20  2  0  0  0
 16 22  1  0  0  0
 17 18  2  0  0  0
 18 19  1  0  0  0
 19 21  2  0  0  0
  1  2  1  0  0  0
  1  3  2  0  0  0
 34 36  1  0  0  0
 34 39  1  0  0  0
 35 37  1  0  0  0
 35 39  1  0  0  0
 36 40  1  0  0  0
 37 40  1  0  0  0
 38 39  1  0  0  0
 33 40  1  0  0  0
 29 30  1  0  0  0
 29 31  1  0  0  0
 29 32  1  0  0  0
 21 22  1  0  0  0
  2  4  1  0  0  0
 39 41  1  0  0  0
 40 42  1  0  0  0
M  CHG 1  39   1
M  CHG 1  40   1
M  END
> <minimizedAffinity>
-7.83421

> <CNNscore>
0.4196525216

> <CNNaffinity>
6.3662538528

> <CNN_VS>
2.6716144085

> <CNNaffinity_variance>
0.8045337796

$$$$
*****


 42 46  0  0  0  0  0  0  0  0999 V2000
 -114.2512   61.6346  -49.5305 C   0  0  0  0  0  0  0  0  0  0  0  0
 -114.8870   61.1145  -50.6762 N   0  0  0  0  0  0  0  0  0  0  0  0
 -114.3360   62.8074  -49.1725 O   0  0  0  0  0  0  0  0  0  0  0  0
 -114.6759   60.1346  -50.8976 H   0  0  0  0  0  0  0  0  0  0  0  0
 -112.1234   61.0197  -48.4079 C   0  0  0  0  0  0  0  0  0  0  0  0
 -111.3356   60.1102  -47.7024 C   0  0  0  0  0  0  0  0  0  0  0  0
 -113.9297   59.4160  -48.4586 C   0  0  0  0  0  0  0  0  0  0  0  0
 -113.1419   58.5064  -47.7531 C   0  0  0  0  0  0  0  0  0  0  0  0
 -113.4205   60.6728  -48.7859 C   0  0  0  0  0  0  0  0  0  0  0  0
 -111.8448   58.8536  -47.3750 C   0  0  0  0  0  0  0  0  0  0  0  0
 -110.9716   57.9042  -46.6190 C   0  0  0  0  0  0  0  0  0  0  0  0
 -113.6870   57.2236  -47.4281 C   0  0  0  0  0  0  0  0  0  0  0  0
 -114.1444   56.1467  -47.1553 C   0  0  0  0  0  0  0  0  0  0  0  0
 -114.0695   53.8045  -46.2130 C   0  0  0  0  0  0  0  0  0  0  0  0
 -114.6888   54.8645  -46.8308 C   0  0  0  0  0  0  0  0  0  0  0  0
 -116.0630   53.1411  -46.6059 C   0  0  0  0  0  0  0  0  0  0  0  0
 -117.3084   52.4879  -46.7582 C   0  0  0  0  0  0  0  0  0  0  0  0
 -118.3247   53.1325  -47.3431 C   0  0  0  0  0  0  0  0  0  0  0  0
 -118.0633   54.5182  -47.8002 C   0  0  0  0  0  0  0  0  0  0  0  0
 -114.9246   52.7409  -46.0766 N   0  0  0  0  0  0  0  0  0  0  0  0
 -116.9456   55.1659  -47.6878 N   0  0  0  0  0  0  0  0  0  0  0  0
 -115.9662   54.4374  -47.0818 N   0  0  0  0  0  0  0  0  0  0  0  0
 -117.9310   61.8984  -52.6107 C   0  0  0  0  0  0  0  0  0  0  0  0
 -117.0522   61.2540  -51.7400 C   0  0  0  0  0  0  0  0  0  0  0  0
 -115.3578   62.9057  -52.2277 C   0  0  0  0  0  0  0  0  0  0  0  0
 -117.5230   63.0464  -53.2900 C   0  0  0  0  0  0  0  0  0  0  0  0
 -116.2365   63.5501  -53.0984 C   0  0  0  0  0  0  0  0  0  0  0  0
 -115.7656   61.7577  -51.5485 C   0  0  0  0  0  0  0  0  0  0  0  0
 -115.7787   64.7789  -53.8133 C   0  0  0  0  0  0  0  0  0  0  0  0
 -116.5593   65.8726  -53.5727 F   0  0  0  0  0  0  0  0  0  0  0  0
 -114.5119   65.1629  -53.4798 F   0  0  0  0  0  0  0  0  0  0  0  0
 -115.7711   64.6233  -55.1685 F   0  0  0  0  0  0  0  0  0  0  0  0
 -118.4856   63.7217  -54.2219 C   0  0  0  0  0  0  0  0  0  0  0  0
 -121.2490   65.9530  -52.8153 C   0  0  0  0  0  0  0  0  0  0  0  0
 -122.2014   63.7041  -53.3341 C   0  0  0  0  0  0  0  0  0  0  0  0
 -119.9984   65.6053  -53.6022 C   0  0  0  0  0  0  0  0  0  0  0  0
 -120.9507   63.3555  -54.1205 C   0  0  0  0  0  0  0  0  0  0  0  0
 -123.7148   65.5892  -52.7192 C   0  0  0  0  0  0  0  0  0  0  0  0
 -122.4245   65.1959  -53.3830 N   0  0  0  0  0  0  0  0  0  0  0  0
 -119.7747   64.1136  -53.5549 N   0  0  0  0  0  0  0  0  0  0  0  0
 -122.5130   65.4621  -54.3735 H   0  0  0  0  0  0  0  0  0  0  0  0
 -119.6838   63.8472  -52.5647 H   0  0  0  0  0  0  0  0  0  0  0  0
 12 13  3  0  0  0
 12  8  1  0  0  0
 13 15  1  0  0  0
  5  6  1  0  0  0
  5  9  2  0  0  0
  6 10  2  0  0  0
 23 24  1  0  0  0
 23 26  2  0  0  0
 24 28  2  0  0  0
  7  8  2  0  0  0
  7  9  1  0  0  0
 25 27  2  0  0  0
 25 28  1  0  0  0
 14 15  2  0  0  0
 14 20  1  0  0  0
  8 10  1  0  0  0
 15 22  1  0  0  0
  9  1  1  0  0  0
 10 11  1  0  0  0
 26 27  1  0  0  0
 26 33  1  0  0  0
 27 29  1  0  0  0
 28  2  1  0  0  0
 16 17  1  0  0  0
 16 20  2  0  0  0
 16 22  1  0  0  0
 17 18  2  0  0  0
 18 19  1  0  0  0
 19 21  2  0  0  0
  1  2  1  0  0  0
  1  3  2  0  0  0
 34 36  1  0  0  0
 34 39  1  0  0  0
 35 37  1  0  0  0
 35 39  1  0  0  0
 36 40  1  0  0  0
 37 40  1  0  0  0
 38 39  1  0  0  0
 33 40  1  0  0  0
 29 30  1  0  0  0
 29 31  1  0  0  0
 29 32  1  0  0  0
 21 22  1  0  0  0
  2  4  1  0  0  0
 39 41  1  0  0  0
 40 42  1  0  0  0
M  CHG 1  39   1
M  CHG 1  40   1
M  END
> <minimizedAffinity>
-7.77216

> <CNNscore>
0.2128402144

> <CNNaffinity>
6.5586190224

> <CNN_VS>
1.3959379196

> <CNNaffinity_variance>
0.5628036857

$$$$
*****


 42 46  0  0  0  0  0  0  0  0999 V2000
 -109.9325   57.1114  -45.7035 C   0  0  0  0  0  0  0  0  0  0  0  0
 -108.8796   58.0406  -45.8275 N   0  0  0  0  0  0  0  0  0  0  0  0
 -109.8655   56.0855  -45.0299 O   0  0  0  0  0  0  0  0  0  0  0  0
 -109.0450   58.8185  -46.4765 H   0  0  0  0  0  0  0  0  0  0  0  0
 -111.2165   58.6268  -47.1936 C   0  0  0  0  0  0  0  0  0  0  0  0
 -112.3601   58.9284  -47.9332 C   0  0  0  0  0  0  0  0  0  0  0  0
 -112.2091   56.5320  -46.5130 C   0  0  0  0  0  0  0  0  0  0  0  0
 -113.3527   56.8335  -47.2526 C   0  0  0  0  0  0  0  0  0  0  0  0
 -111.1409   57.4286  -46.4836 C   0  0  0  0  0  0  0  0  0  0  0  0
 -113.4281   58.0318  -47.9627 C   0  0  0  0  0  0  0  0  0  0  0  0
 -114.6381   58.3888  -48.7652 C   0  0  0  0  0  0  0  0  0  0  0  0
 -114.4350   55.8971  -47.2680 C   0  0  0  0  0  0  0  0  0  0  0  0
 -115.3436   55.1112  -47.2811 C   0  0  0  0  0  0  0  0  0  0  0  0
 -116.5453   52.9960  -46.6020 C   0  0  0  0  0  0  0  0  0  0  0  0
 -116.4254   54.1757  -47.2968 C   0  0  0  0  0  0  0  0  0  0  0  0
 -118.3441   53.1622  -47.7444 C   0  0  0  0  0  0  0  0  0  0  0  0
 -119.5958   53.0533  -48.3942 C   0  0  0  0  0  0  0  0  0  0  0  0
 -119.9861   54.0137  -49.2402 C   0  0  0  0  0  0  0  0  0  0  0  0
 -119.0539   55.1491  -49.4393 C   0  0  0  0  0  0  0  0  0  0  0  0
 -117.7345   52.3732  -46.8829 N   0  0  0  0  0  0  0  0  0  0  0  0
 -117.8976   55.3015  -48.8728 N   0  0  0  0  0  0  0  0  0  0  0  0
 -117.5791   54.2804  -48.0283 N   0  0  0  0  0  0  0  0  0  0  0  0
 -106.3121   57.6434  -43.2059 C   0  0  0  0  0  0  0  0  0  0  0  0
 -107.5498   57.6448  -43.8490 C   0  0  0  0  0  0  0  0  0  0  0  0
 -106.4966   58.4359  -45.8743 C   0  0  0  0  0  0  0  0  0  0  0  0
 -105.1666   58.0385  -43.8970 C   0  0  0  0  0  0  0  0  0  0  0  0
 -105.2589   58.4346  -45.2312 C   0  0  0  0  0  0  0  0  0  0  0  0
 -107.6421   58.0410  -45.1833 C   0  0  0  0  0  0  0  0  0  0  0  0
 -104.0457   58.8595  -45.9916 C   0  0  0  0  0  0  0  0  0  0  0  0
 -103.0245   57.9552  -45.9389 F   0  0  0  0  0  0  0  0  0  0  0  0
 -104.2788   59.0590  -47.3217 F   0  0  0  0  0  0  0  0  0  0  0  0
 -103.5229   60.0318  -45.5298 F   0  0  0  0  0  0  0  0  0  0  0  0
 -103.8466   58.0296  -43.1838 C   0  0  0  0  0  0  0  0  0  0  0  0
 -103.0777   54.2955  -42.9409 C   0  0  0  0  0  0  0  0  0  0  0  0
 -102.1467   55.4521  -40.9336 C   0  0  0  0  0  0  0  0  0  0  0  0
 -103.2877   55.6379  -43.6176 C   0  0  0  0  0  0  0  0  0  0  0  0
 -102.3572   56.7950  -41.6095 C   0  0  0  0  0  0  0  0  0  0  0  0
 -101.5837   53.0617  -41.3701 C   0  0  0  0  0  0  0  0  0  0  0  0
 -101.9150   54.3934  -41.9840 N   0  0  0  0  0  0  0  0  0  0  0  0
 -103.5186   56.6977  -42.5683 N   0  0  0  0  0  0  0  0  0  0  0  0
 -101.0896   54.6764  -42.5301 H   0  0  0  0  0  0  0  0  0  0  0  0
 -104.3453   56.4164  -42.0233 H   0  0  0  0  0  0  0  0  0  0  0  0
 12 13  3  0  0  0
 12  8  1  0  0  0
 13 15  1  0  0  0
  5  6  1  0  0  0
  5  9  2  0  0  0
  6 10  2  0  0  0
 23 24  1  0  0  0
 23 26  2  0  0  0
 24 28  2  0  0  0
  7  8  2  0  0  0
  7  9  1  0  0  0
 25 27  2  0  0  0
 25 28  1  0  0  0
 14 15  2  0  0  0
 14 20  1  0  0  0
  8 10  1  0  0  0
 15 22  1  0  0  0
  9  1  1  0  0  0
 10 11  1  0  0  0
 26 27  1  0  0  0
 26 33  1  0  0  0
 27 29  1  0  0  0
 28  2  1  0  0  0
 16 17  1  0  0  0
 16 20  2  0  0  0
 16 22  1  0  0  0
 17 18  2  0  0  0
 18 19  1  0  0  0
 19 21  2  0  0  0
  1  2  1  0  0  0
  1  3  2  0  0  0
 34 36  1  0  0  0
 34 39  1  0  0  0
 35 37  1  0  0  0
 35 39  1  0  0  0
 36 40  1  0  0  0
 37 40  1  0  0  0
 38 39  1  0  0  0
 33 40  1  0  0  0
 29 30  1  0  0  0
 29 31  1  0  0  0
 29 32  1  0  0  0
 21 22  1  0  0  0
  2  4  1  0  0  0
 39 41  1  0  0  0
 40 42  1  0  0  0
M  CHG 1  39   1
M  CHG 1  40   1
M  END
> <minimizedAffinity>
-7.91606

> <CNNscore>
0.1632418334

> <CNNaffinity>
6.2344651222

> <CNN_VS>
1.0177254677

> <CNNaffinity_variance>
0.6865232587

$$$$
*****


 42 46  0  0  0  0  0  0  0  0999 V2000
 -110.1828   58.1305  -47.6902 C   0  0  0  0  0  0  0  0  0  0  0  0
 -109.3492   59.1558  -47.1992 N   0  0  0  0  0  0  0  0  0  0  0  0
 -109.7668   57.0620  -48.1331 O   0  0  0  0  0  0  0  0  0  0  0  0
 -109.8240   60.0233  -46.9235 H   0  0  0  0  0  0  0  0  0  0  0  0
 -112.0530   59.7632  -47.7402 C   0  0  0  0  0  0  0  0  0  0  0  0
 -113.4168   60.0556  -47.7311 C   0  0  0  0  0  0  0  0  0  0  0  0
 -112.5577   57.4041  -47.6103 C   0  0  0  0  0  0  0  0  0  0  0  0
 -113.9216   57.6964  -47.6012 C   0  0  0  0  0  0  0  0  0  0  0  0
 -111.6234   58.4375  -47.6800 C   0  0  0  0  0  0  0  0  0  0  0  0
 -114.3511   59.0222  -47.6616 C   0  0  0  0  0  0  0  0  0  0  0  0
 -115.8045   59.3731  -47.6529 C   0  0  0  0  0  0  0  0  0  0  0  0
 -114.8609   56.6188  -47.5301 C   0  0  0  0  0  0  0  0  0  0  0  0
 -115.6495   55.7145  -47.4704 C   0  0  0  0  0  0  0  0  0  0  0  0
 -116.5448   53.5171  -46.6049 C   0  0  0  0  0  0  0  0  0  0  0  0
 -116.5884   54.6378  -47.3991 C   0  0  0  0  0  0  0  0  0  0  0  0
 -118.3421   53.3291  -47.7463 C   0  0  0  0  0  0  0  0  0  0  0  0
 -119.5620   52.9893  -48.3768 C   0  0  0  0  0  0  0  0  0  0  0  0
 -120.0786   53.8087  -49.2998 C   0  0  0  0  0  0  0  0  0  0  0  0
 -119.3148   55.0429  -49.6013 C   0  0  0  0  0  0  0  0  0  0  0  0
 -117.6325   52.7109  -46.8240 N   0  0  0  0  0  0  0  0  0  0  0  0
 -118.1950   55.4051  -49.0570 N   0  0  0  0  0  0  0  0  0  0  0  0
 -117.7408   54.5155  -48.1299 N   0  0  0  0  0  0  0  0  0  0  0  0
 -105.9962   58.3515  -45.8830 C   0  0  0  0  0  0  0  0  0  0  0  0
 -107.3819   58.3629  -46.0415 C   0  0  0  0  0  0  0  0  0  0  0  0
 -107.1590   59.9171  -47.8778 C   0  0  0  0  0  0  0  0  0  0  0  0
 -105.1918   59.1230  -46.7218 C   0  0  0  0  0  0  0  0  0  0  0  0
 -105.7733   59.9057  -47.7192 C   0  0  0  0  0  0  0  0  0  0  0  0
 -107.9634   59.1457  -47.0390 C   0  0  0  0  0  0  0  0  0  0  0  0
 -104.9319   60.7381  -48.6302 C   0  0  0  0  0  0  0  0  0  0  0  0
 -104.1913   61.6815  -47.9784 F   0  0  0  0  0  0  0  0  0  0  0  0
 -104.0302   60.0122  -49.3537 F   0  0  0  0  0  0  0  0  0  0  0  0
 -105.6740   61.4224  -49.5477 F   0  0  0  0  0  0  0  0  0  0  0  0
 -103.7038   59.0951  -46.5315 C   0  0  0  0  0  0  0  0  0  0  0  0
 -102.8823   60.7091  -43.1679 C   0  0  0  0  0  0  0  0  0  0  0  0
 -101.4516   61.7373  -44.9370 C   0  0  0  0  0  0  0  0  0  0  0  0
 -103.2718   59.5992  -44.1273 C   0  0  0  0  0  0  0  0  0  0  0  0
 -101.8414   60.6280  -45.8973 C   0  0  0  0  0  0  0  0  0  0  0  0
 -101.0163   62.2376  -42.5324 C   0  0  0  0  0  0  0  0  0  0  0  0
 -101.5058   61.2166  -43.5215 N   0  0  0  0  0  0  0  0  0  0  0  0
 -103.2171   60.1183  -45.5434 N   0  0  0  0  0  0  0  0  0  0  0  0
 -100.8585   60.4185  -43.4616 H   0  0  0  0  0  0  0  0  0  0  0  0
 -103.8660   60.9151  -45.6045 H   0  0  0  0  0  0  0  0  0  0  0  0
 12 13  3  0  0  0
 12  8  1  0  0  0
 13 15  1  0  0  0
  5  6  1  0  0  0
  5  9  2  0  0  0
  6 10  2  0  0  0
 23 24  1  0  0  0
 23 26  2  0  0  0
 24 28  2  0  0  0
  7  8  2  0  0  0
  7  9  1  0  0  0
 25 27  2  0  0  0
 25 28  1  0  0  0
 14 15  2  0  0  0
 14 20  1  0  0  0
  8 10  1  0  0  0
 15 22  1  0  0  0
  9  1  1  0  0  0
 10 11  1  0  0  0
 26 27  1  0  0  0
 26 33  1  0  0  0
 27 29  1  0  0  0
 28  2  1  0  0  0
 16 17  1  0  0  0
 16 20  2  0  0  0
 16 22  1  0  0  0
 17 18  2  0  0  0
 18 19  1  0  0  0
 19 21  2  0  0  0
  1  2  1  0  0  0
  1  3  2  0  0  0
 34 36  1  0  0  0
 34 39  1  0  0  0
 35 37  1  0  0  0
 35 39  1  0  0  0
 36 40  1  0  0  0
 37 40  1  0  0  0
 38 39  1  0  0  0
 33 40  1  0  0  0
 29 30  1  0  0  0
 29 31  1  0  0  0
 29 32  1  0  0  0
 21 22  1  0  0  0
  2  4  1  0  0  0
 39 41  1  0  0  0
 40 42  1  0  0  0
M  CHG 1  39   1
M  CHG 1  40   1
M  END
> <minimizedAffinity>
-8.28429

> <CNNscore>
0.1589095145

> <CNNaffinity>
6.1804766655

> <CNN_VS>
0.9821365476

> <CNNaffinity_variance>
0.6827149391

$$$$
*****


 42 46  0  0  0  0  0  0  0  0999 V2000
 -112.7357   61.9368  -48.4730 C   0  0  0  0  0  0  0  0  0  0  0  0
 -111.7574   60.9656  -48.1783 N   0  0  0  0  0  0  0  0  0  0  0  0
 -112.5187   63.1465  -48.4856 O   0  0  0  0  0  0  0  0  0  0  0  0
 -112.0904   59.9955  -48.1351 H   0  0  0  0  0  0  0  0  0  0  0  0
 -115.0457   62.2143  -49.3407 C   0  0  0  0  0  0  0  0  0  0  0  0
 -116.3236   61.7129  -49.5882 C   0  0  0  0  0  0  0  0  0  0  0  0
 -114.4021   60.0962  -48.3729 C   0  0  0  0  0  0  0  0  0  0  0  0
 -115.6799   59.5948  -48.6204 C   0  0  0  0  0  0  0  0  0  0  0  0
 -114.0849   61.4059  -48.7332 C   0  0  0  0  0  0  0  0  0  0  0  0
 -116.6407   60.4032  -49.2281 C   0  0  0  0  0  0  0  0  0  0  0  0
 -118.0206   59.9000  -49.5078 C   0  0  0  0  0  0  0  0  0  0  0  0
 -115.9810   58.2476  -48.2425 C   0  0  0  0  0  0  0  0  0  0  0  0
 -116.2338   57.1168  -47.9251 C   0  0  0  0  0  0  0  0  0  0  0  0
 -115.8196   54.9340  -46.7238 C   0  0  0  0  0  0  0  0  0  0  0  0
 -116.5345   55.7705  -47.5471 C   0  0  0  0  0  0  0  0  0  0  0  0
 -117.5172   53.7949  -47.3473 C   0  0  0  0  0  0  0  0  0  0  0  0
 -118.5425   52.8587  -47.6184 C   0  0  0  0  0  0  0  0  0  0  0  0
 -119.5535   53.2020  -48.4248 C   0  0  0  0  0  0  0  0  0  0  0  0
 -119.5233   54.5726  -48.9890 C   0  0  0  0  0  0  0  0  0  0  0  0
 -116.4324   53.7129  -46.6039 N   0  0  0  0  0  0  0  0  0  0  0  0
 -118.6122   55.4705  -48.7765 N   0  0  0  0  0  0  0  0  0  0  0  0
 -117.6220   55.0387  -47.9457 N   0  0  0  0  0  0  0  0  0  0  0  0
 -108.2167   61.8731  -48.6908 C   0  0  0  0  0  0  0  0  0  0  0  0
 -109.5777   61.6864  -48.9324 C   0  0  0  0  0  0  0  0  0  0  0  0
 -109.8525   60.8014  -46.7012 C   0  0  0  0  0  0  0  0  0  0  0  0
 -107.6736   61.5237  -47.4543 C   0  0  0  0  0  0  0  0  0  0  0  0
 -108.4915   60.9881  -46.4595 C   0  0  0  0  0  0  0  0  0  0  0  0
 -110.3957   61.1506  -47.9376 C   0  0  0  0  0  0  0  0  0  0  0  0
 -107.9325   60.6088  -45.1275 C   0  0  0  0  0  0  0  0  0  0  0  0
 -108.8883   60.3789  -44.1803 F   0  0  0  0  0  0  0  0  0  0  0  0
 -107.1776   59.4719  -45.1574 F   0  0  0  0  0  0  0  0  0  0  0  0
 -107.1226   61.5746  -44.6060 F   0  0  0  0  0  0  0  0  0  0  0  0
 -106.2068   61.7330  -47.2181 C   0  0  0  0  0  0  0  0  0  0  0  0
 -104.1548   59.2565  -49.2796 C   0  0  0  0  0  0  0  0  0  0  0  0
 -103.5191   59.0396  -46.8750 C   0  0  0  0  0  0  0  0  0  0  0  0
 -104.8820   60.5527  -48.9709 C   0  0  0  0  0  0  0  0  0  0  0  0
 -104.2468   60.3354  -46.5654 C   0  0  0  0  0  0  0  0  0  0  0  0
 -102.1911   57.8632  -48.6283 C   0  0  0  0  0  0  0  0  0  0  0  0
 -103.0222   59.0721  -48.2996 N   0  0  0  0  0  0  0  0  0  0  0  0
 -105.3786   60.5219  -47.5461 N   0  0  0  0  0  0  0  0  0  0  0  0
 -102.4002   59.8873  -48.3907 H   0  0  0  0  0  0  0  0  0  0  0  0
 -106.0025   59.7082  -47.4550 H   0  0  0  0  0  0  0  0  0  0  0  0
 12 13  3  0  0  0
 12  8  1  0  0  0
 13 15  1  0  0  0
  5  6  1  0  0  0
  5  9  2  0  0  0
  6 10  2  0  0  0
 23 24  1  0  0  0
 23 26  2  0  0  0
 24 28  2  0  0  0
  7  8  2  0  0  0
  7  9  1  0  0  0
 25 27  2  0  0  0
 25 28  1  0  0  0
 14 15  2  0  0  0
 14 20  1  0  0  0
  8 10  1  0  0  0
 15 22  1  0  0  0
  9  1  1  0  0  0
 10 11  1  0  0  0
 26 27  1  0  0  0
 26 33  1  0  0  0
 27 29  1  0  0  0
 28  2  1  0  0  0
 16 17  1  0  0  0
 16 20  2  0  0  0
 16 22  1  0  0  0
 17 18  2  0  0  0
 18 19  1  0  0  0
 19 21  2  0  0  0
  1  2  1  0  0  0
  1  3  2  0  0  0
 34 36  1  0  0  0
 34 39  1  0  0  0
 35 37  1  0  0  0
 35 39  1  0  0  0
 36 40  1  0  0  0
 37 40  1  0  0  0
 38 39  1  0  0  0
 33 40  1  0  0  0
 29 30  1  0  0  0
 29 31  1  0  0  0
 29 32  1  0  0  0
 21 22  1  0  0  0
  2  4  1  0  0  0
 39 41  1  0  0  0
 40 42  1  0  0  0
M  CHG 1  39   1
M  CHG 1  40   1
M  END
> <minimizedAffinity>
-8.26068

> <CNNscore>
0.1555802226

> <CNNaffinity>
6.4353628159

> <CNN_VS>
1.0012152195

> <CNNaffinity_variance>
0.3472056091

$$$$
*****


 42 46  0  0  0  0  0  0  0  0999 V2000
 -110.1544   58.0039  -47.7798 C   0  0  0  0  0  0  0  0  0  0  0  0
 -109.2850   59.1073  -47.6619 N   0  0  0  0  0  0  0  0  0  0  0  0
 -109.7754   56.8494  -47.9650 O   0  0  0  0  0  0  0  0  0  0  0  0
 -109.7374   60.0250  -47.5784 H   0  0  0  0  0  0  0  0  0  0  0  0
 -112.0024   59.6605  -47.7033 C   0  0  0  0  0  0  0  0  0  0  0  0
 -113.3610   59.9694  -47.6348 C   0  0  0  0  0  0  0  0  0  0  0  0
 -112.5348   57.3048  -47.6418 C   0  0  0  0  0  0  0  0  0  0  0  0
 -113.8933   57.6135  -47.5732 C   0  0  0  0  0  0  0  0  0  0  0  0
 -111.5893   58.3283  -47.7069 C   0  0  0  0  0  0  0  0  0  0  0  0
 -114.3064   58.9459  -47.5697 C   0  0  0  0  0  0  0  0  0  0  0  0
 -115.7536   59.3143  -47.4963 C   0  0  0  0  0  0  0  0  0  0  0  0
 -114.8443   56.5459  -47.5081 C   0  0  0  0  0  0  0  0  0  0  0  0
 -115.6427   55.6498  -47.4533 C   0  0  0  0  0  0  0  0  0  0  0  0
 -116.5649   53.4606  -46.5954 C   0  0  0  0  0  0  0  0  0  0  0  0
 -116.5932   54.5830  -47.3879 C   0  0  0  0  0  0  0  0  0  0  0  0
 -118.3590   53.2935  -47.7450 C   0  0  0  0  0  0  0  0  0  0  0  0
 -119.5797   52.9676  -48.3814 C   0  0  0  0  0  0  0  0  0  0  0  0
 -120.0836   53.7939  -49.3052 C   0  0  0  0  0  0  0  0  0  0  0  0
 -119.3054   55.0205  -49.6014 C   0  0  0  0  0  0  0  0  0  0  0  0
 -117.6601   52.6664  -46.8206 N   0  0  0  0  0  0  0  0  0  0  0  0
 -118.1843   55.3699  -49.0515 N   0  0  0  0  0  0  0  0  0  0  0  0
 -117.7436   54.4740  -48.1239 N   0  0  0  0  0  0  0  0  0  0  0  0
 -105.7828   59.2588  -48.8172 C   0  0  0  0  0  0  0  0  0  0  0  0
 -107.1775   59.2491  -48.8358 C   0  0  0  0  0  0  0  0  0  0  0  0
 -107.2077   58.9906  -46.4338 C   0  0  0  0  0  0  0  0  0  0  0  0
 -105.1006   59.1342  -47.6069 C   0  0  0  0  0  0  0  0  0  0  0  0
 -105.8130   59.0003  -46.4152 C   0  0  0  0  0  0  0  0  0  0  0  0
 -107.8900   59.1151  -47.6440 C   0  0  0  0  0  0  0  0  0  0  0  0
 -105.1039   58.8676  -45.1075 C   0  0  0  0  0  0  0  0  0  0  0  0
 -104.4478   60.0021  -44.7253 F   0  0  0  0  0  0  0  0  0  0  0  0
 -105.9335   58.5659  -44.0663 F   0  0  0  0  0  0  0  0  0  0  0  0
 -104.1592   57.8837  -45.1223 F   0  0  0  0  0  0  0  0  0  0  0  0
 -103.6003   59.1465  -47.6122 C   0  0  0  0  0  0  0  0  0  0  0  0
 -101.0585   61.8805  -46.8009 C   0  0  0  0  0  0  0  0  0  0  0  0
 -102.7672   62.7964  -48.3742 C   0  0  0  0  0  0  0  0  0  0  0  0
 -101.5576   60.4738  -47.0770 C   0  0  0  0  0  0  0  0  0  0  0  0
 -103.2674   61.3899  -48.6501 C   0  0  0  0  0  0  0  0  0  0  0  0
 -100.7220   64.1217  -47.8429 C   0  0  0  0  0  0  0  0  0  0  0  0
 -101.3027   62.7455  -48.0131 N   0  0  0  0  0  0  0  0  0  0  0  0
 -103.0218   60.5234  -47.4392 N   0  0  0  0  0  0  0  0  0  0  0  0
 -100.8049   62.3145  -48.8044 H   0  0  0  0  0  0  0  0  0  0  0  0
 -103.5205   60.9522  -46.6473 H   0  0  0  0  0  0  0  0  0  0  0  0
 12 13  3  0  0  0
 12  8  1  0  0  0
 13 15  1  0  0  0
  5  6  1  0  0  0
  5  9  2  0  0  0
  6 10  2  0  0  0
 23 24  1  0  0  0
 23 26  2  0  0  0
 24 28  2  0  0  0
  7  8  2  0  0  0
  7  9  1  0  0  0
 25 27  2  0  0  0
 25 28  1  0  0  0
 14 15  2  0  0  0
 14 20  1  0  0  0
  8 10  1  0  0  0
 15 22  1  0  0  0
  9  1  1  0  0  0
 10 11  1  0  0  0
 26 27  1  0  0  0
 26 33  1  0  0  0
 27 29  1  0  0  0
 28  2  1  0  0  0
 16 17  1  0  0  0
 16 20  2  0  0  0
 16 22  1  0  0  0
 17 18  2  0  0  0
 18 19  1  0  0  0
 19 21  2  0  0  0
  1  2  1  0  0  0
  1  3  2  0  0  0
 34 36  1  0  0  0
 34 39  1  0  0  0
 35 37  1  0  0  0
 35 39  1  0  0  0
 36 40  1  0  0  0
 37 40  1  0  0  0
 38 39  1  0  0  0
 33 40  1  0  0  0
 29 30  1  0  0  0
 29 31  1  0  0  0
 29 32  1  0  0  0
 21 22  1  0  0  0
  2  4  1  0  0  0
 39 41  1  0  0  0
 40 42  1  0  0  0
M  CHG 1  39   1
M  CHG 1  40   1
M  END
> <minimizedAffinity>
-8.63893

> <CNNscore>
0.1537573487

> <CNNaffinity>
6.2310738564

> <CNN_VS>
0.9580733776

> <CNNaffinity_variance>
0.3189657927

$$$$
*****


 42 46  0  0  0  0  0  0  0  0999 V2000
 -109.6794   58.9900  -47.7029 C   0  0  0  0  0  0  0  0  0  0  0  0
 -108.4405   58.6925  -48.3061 N   0  0  0  0  0  0  0  0  0  0  0  0
 -109.9831   60.1005  -47.2725 O   0  0  0  0  0  0  0  0  0  0  0  0
 -108.2918   57.7086  -48.5583 H   0  0  0  0  0  0  0  0  0  0  0  0
 -110.1122   56.5920  -47.2254 C   0  0  0  0  0  0  0  0  0  0  0  0
 -110.9855   55.5110  -47.1051 C   0  0  0  0  0  0  0  0  0  0  0  0
 -111.9672   58.0259  -47.8080 C   0  0  0  0  0  0  0  0  0  0  0  0
 -112.8406   56.9451  -47.6878 C   0  0  0  0  0  0  0  0  0  0  0  0
 -110.6030   57.8495  -47.5767 C   0  0  0  0  0  0  0  0  0  0  0  0
 -112.3496   55.6875  -47.3363 C   0  0  0  0  0  0  0  0  0  0  0  0
 -113.2558   54.5062  -47.1990 C   0  0  0  0  0  0  0  0  0  0  0  0
 -114.2362   57.1514  -47.9291 C   0  0  0  0  0  0  0  0  0  0  0  0
 -115.4076   57.3248  -48.1317 C   0  0  0  0  0  0  0  0  0  0  0  0
 -117.8644   56.7662  -47.9544 C   0  0  0  0  0  0  0  0  0  0  0  0
 -116.8022   57.5314  -48.3728 C   0  0  0  0  0  0  0  0  0  0  0  0
 -118.7307   58.3710  -49.0692 C   0  0  0  0  0  0  0  0  0  0  0  0
 -119.5229   59.3232  -49.7524 C   0  0  0  0  0  0  0  0  0  0  0  0
 -118.9312   60.3482  -50.3765 C   0  0  0  0  0  0  0  0  0  0  0  0
 -117.4518   60.4113  -50.3044 C   0  0  0  0  0  0  0  0  0  0  0  0
 -119.0551   57.2905  -48.3882 N   0  0  0  0  0  0  0  0  0  0  0  0
 -116.6762   59.5696  -49.6950 N   0  0  0  0  0  0  0  0  0  0  0  0
 -117.3594   58.5592  -49.0871 N   0  0  0  0  0  0  0  0  0  0  0  0
 -106.6064   61.7518  -49.2544 C   0  0  0  0  0  0  0  0  0  0  0  0
 -107.6570   60.8837  -48.9574 C   0  0  0  0  0  0  0  0  0  0  0  0
 -106.0726   59.1058  -48.5499 C   0  0  0  0  0  0  0  0  0  0  0  0
 -105.2889   61.2969  -49.1992 C   0  0  0  0  0  0  0  0  0  0  0  0
 -105.0221   59.9740  -48.8468 C   0  0  0  0  0  0  0  0  0  0  0  0
 -107.3901   59.5606  -48.6051 C   0  0  0  0  0  0  0  0  0  0  0  0
 -103.6194   59.4654  -48.7791 C   0  0  0  0  0  0  0  0  0  0  0  0
 -103.4437   58.4705  -47.8611 F   0  0  0  0  0  0  0  0  0  0  0  0
 -103.1706   58.9466  -49.9593 F   0  0  0  0  0  0  0  0  0  0  0  0
 -102.7257   60.4391  -48.4418 F   0  0  0  0  0  0  0  0  0  0  0  0
 -104.1757   62.2490  -49.5236 C   0  0  0  0  0  0  0  0  0  0  0  0
 -104.6628   66.0342  -49.3556 C   0  0  0  0  0  0  0  0  0  0  0  0
 -105.0716   65.2623  -51.6946 C   0  0  0  0  0  0  0  0  0  0  0  0
 -104.0479   64.6880  -49.0184 C   0  0  0  0  0  0  0  0  0  0  0  0
 -104.4574   63.9155  -51.3578 C   0  0  0  0  0  0  0  0  0  0  0  0
 -104.9389   67.7015  -51.1903 C   0  0  0  0  0  0  0  0  0  0  0  0
 -104.4542   66.3271  -50.8213 N   0  0  0  0  0  0  0  0  0  0  0  0
 -104.6638   63.6225  -49.8918 N   0  0  0  0  0  0  0  0  0  0  0  0
 -103.4397   66.3188  -50.9956 H   0  0  0  0  0  0  0  0  0  0  0  0
 -105.6781   63.6287  -49.7162 H   0  0  0  0  0  0  0  0  0  0  0  0
 12 13  3  0  0  0
 12  8  1  0  0  0
 13 15  1  0  0  0
  5  6  1  0  0  0
  5  9  2  0  0  0
  6 10  2  0  0  0
 23 24  1  0  0  0
 23 26  2  0  0  0
 24 28  2  0  0  0
  7  8  2  0  0  0
  7  9  1  0  0  0
 25 27  2  0  0  0
 25 28  1  0  0  0
 14 15  2  0  0  0
 14 20  1  0  0  0
  8 10  1  0  0  0
 15 22  1  0  0  0
  9  1  1  0  0  0
 10 11  1  0  0  0
 26 27  1  0  0  0
 26 33  1  0  0  0
 27 29  1  0  0  0
 28  2  1  0  0  0
 16 17  1  0  0  0
 16 20  2  0  0  0
 16 22  1  0  0  0
 17 18  2  0  0  0
 18 19  1  0  0  0
 19 21  2  0  0  0
  1  2  1  0  0  0
  1  3  2  0  0  0
 34 36  1  0  0  0
 34 39  1  0  0  0
 35 37  1  0  0  0
 35 39  1  0  0  0
 36 40  1  0  0  0
 37 40  1  0  0  0
 38 39  1  0  0  0
 33 40  1  0  0  0
 29 30  1  0  0  0
 29 31  1  0  0  0
 29 32  1  0  0  0
 21 22  1  0  0  0
  2  4  1  0  0  0
 39 41  1  0  0  0
 40 42  1  0  0  0
M  CHG 1  39   1
M  CHG 1  40   1
M  END
> <minimizedAffinity>
-8.75534

> <CNNscore>
0.1493355930

> <CNNaffinity>
5.9298167229

> <CNN_VS>
0.8855326772

> <CNNaffinity_variance>
0.0690682679

$$$$
*****


 42 46  0  0  0  0  0  0  0  0999 V2000
 -116.0170   62.1874  -49.7625 C   0  0  0  0  0  0  0  0  0  0  0  0
 -116.6043   61.8329  -50.9940 N   0  0  0  0  0  0  0  0  0  0  0  0
 -116.1501   63.2878  -49.2313 O   0  0  0  0  0  0  0  0  0  0  0  0
 -116.3550   60.9054  -51.3567 H   0  0  0  0  0  0  0  0  0  0  0  0
 -113.8426   61.4205  -48.8409 C   0  0  0  0  0  0  0  0  0  0  0  0
 -113.0441   60.4357  -48.2593 C   0  0  0  0  0  0  0  0  0  0  0  0
 -115.7090   59.8868  -48.8756 C   0  0  0  0  0  0  0  0  0  0  0  0
 -114.9106   58.9019  -48.2941 C   0  0  0  0  0  0  0  0  0  0  0  0
 -115.1750   61.1462  -49.1489 C   0  0  0  0  0  0  0  0  0  0  0  0
 -113.5780   59.1765  -47.9860 C   0  0  0  0  0  0  0  0  0  0  0  0
 -112.6924   58.1453  -47.3631 C   0  0  0  0  0  0  0  0  0  0  0  0
 -115.4815   57.6179  -48.0224 C   0  0  0  0  0  0  0  0  0  0  0  0
 -115.9605   56.5401  -47.7942 C   0  0  0  0  0  0  0  0  0  0  0  0
 -116.0714   54.2802  -46.6716 C   0  0  0  0  0  0  0  0  0  0  0  0
 -116.5307   55.2567  -47.5227 C   0  0  0  0  0  0  0  0  0  0  0  0
 -117.8555   53.4809  -47.5356 C   0  0  0  0  0  0  0  0  0  0  0  0
 -118.9880   52.7505  -47.9658 C   0  0  0  0  0  0  0  0  0  0  0  0
 -119.8238   53.2938  -48.8583 C   0  0  0  0  0  0  0  0  0  0  0  0
 -119.4923   54.6550  -49.3430 C   0  0  0  0  0  0  0  0  0  0  0  0
 -116.8952   53.1838  -46.6837 N   0  0  0  0  0  0  0  0  0  0  0  0
 -118.4713   55.3699  -48.9854 N   0  0  0  0  0  0  0  0  0  0  0  0
 -117.6740   54.7426  -48.0755 N   0  0  0  0  0  0  0  0  0  0  0  0
 -119.7332   63.1501  -52.4424 C   0  0  0  0  0  0  0  0  0  0  0  0
 -118.8579   62.4037  -51.6535 C   0  0  0  0  0  0  0  0  0  0  0  0
 -116.9776   63.4982  -52.7041 C   0  0  0  0  0  0  0  0  0  0  0  0
 -119.2306   64.0704  -53.3623 C   0  0  0  0  0  0  0  0  0  0  0  0
 -117.8529   64.2446  -53.4930 C   0  0  0  0  0  0  0  0  0  0  0  0
 -117.4801   62.5778  -51.7843 C   0  0  0  0  0  0  0  0  0  0  0  0
 -117.2923   65.2256  -54.4697 C   0  0  0  0  0  0  0  0  0  0  0  0
 -117.6837   66.5123  -54.2360 F   0  0  0  0  0  0  0  0  0  0  0  0
 -115.9278   65.2632  -54.4815 F   0  0  0  0  0  0  0  0  0  0  0  0
 -117.6640   64.9556  -55.7541 F   0  0  0  0  0  0  0  0  0  0  0  0
 -120.1917   64.8611  -54.2003 C   0  0  0  0  0  0  0  0  0  0  0  0
 -122.9217   62.7746  -55.8698 C   0  0  0  0  0  0  0  0  0  0  0  0
 -121.4367   63.7350  -57.6322 C   0  0  0  0  0  0  0  0  0  0  0  0
 -122.3086   63.7096  -54.8431 C   0  0  0  0  0  0  0  0  0  0  0  0
 -120.8226   64.6698  -56.6058 C   0  0  0  0  0  0  0  0  0  0  0  0
 -123.5563   62.5878  -58.2749 C   0  0  0  0  0  0  0  0  0  0  0  0
 -122.8572   63.4170  -57.2338 N   0  0  0  0  0  0  0  0  0  0  0  0
 -120.8884   64.0291  -55.2409 N   0  0  0  0  0  0  0  0  0  0  0  0
 -123.3689   64.3085  -57.1789 H   0  0  0  0  0  0  0  0  0  0  0  0
 -120.3755   63.1381  -55.2938 H   0  0  0  0  0  0  0  0  0  0  0  0
 12 13  3  0  0  0
 12  8  1  0  0  0
 13 15  1  0  0  0
  5  6  1  0  0  0
  5  9  2  0  0  0
  6 10  2  0  0  0
 23 24  1  0  0  0
 23 26  2  0  0  0
 24 28  2  0  0  0
  7  8  2  0  0  0
  7  9  1  0  0  0
 25 27  2  0  0  0
 25 28  1  0  0  0
 14 15  2  0  0  0
 14 20  1  0  0  0
  8 10  1  0  0  0
 15 22  1  0  0  0
  9  1  1  0  0  0
 10 11  1  0  0  0
 26 27  1  0  0  0
 26 33  1  0  0  0
 27 29  1  0  0  0
 28  2  1  0  0  0
 16 17  1  0  0  0
 16 20  2  0  0  0
 16 22  1  0  0  0
 17 18  2  0  0  0
 18 19  1  0  0  0
 19 21  2  0  0  0
  1  2  1  0  0  0
  1  3  2  0  0  0
 34 36  1  0  0  0
 34 39  1  0  0  0
 35 37  1  0  0  0
 35 39  1  0  0  0
 36 40  1  0  0  0
 37 40  1  0  0  0
 38 39  1  0  0  0
 33 40  1  0  0  0
 29 30  1  0  0  0
 29 31  1  0  0  0
 29 32  1  0  0  0
 21 22  1  0  0  0
  2  4  1  0  0  0
 39 41  1  0  0  0
 40 42  1  0  0  0
M  CHG 1  39   1
M  CHG 1  40   1
M  END
> <minimizedAffinity>
-8.19923

> <CNNscore>
0.1368916929

> <CNNaffinity>
6.3795471191

> <CNN_VS>
0.8733069897

> <CNNaffinity_variance>
0.4474524856

$$$$
*****


 42 46  0  0  0  0  0  0  0  0999 V2000
 -110.3698   58.5801  -47.5506 C   0  0  0  0  0  0  0  0  0  0  0  0
 -109.0506   58.5345  -47.0557 N   0  0  0  0  0  0  0  0  0  0  0  0
 -110.8177   59.5060  -48.2237 O   0  0  0  0  0  0  0  0  0  0  0  0
 -108.8287   57.7361  -46.4497 H   0  0  0  0  0  0  0  0  0  0  0  0
 -110.7462   56.4899  -46.2642 C   0  0  0  0  0  0  0  0  0  0  0  0
 -111.5504   55.4093  -45.9018 C   0  0  0  0  0  0  0  0  0  0  0  0
 -112.4982   57.3081  -47.7126 C   0  0  0  0  0  0  0  0  0  0  0  0
 -113.3024   56.2276  -47.3504 C   0  0  0  0  0  0  0  0  0  0  0  0
 -111.2201   57.4394  -47.1694 C   0  0  0  0  0  0  0  0  0  0  0  0
 -112.8284   55.2781  -46.4449 C   0  0  0  0  0  0  0  0  0  0  0  0
 -113.6618   54.1066  -46.0344 C   0  0  0  0  0  0  0  0  0  0  0  0
 -114.6104   56.1152  -47.9205 C   0  0  0  0  0  0  0  0  0  0  0  0
 -115.7082   56.0209  -48.3992 C   0  0  0  0  0  0  0  0  0  0  0  0
 -117.6545   56.7795  -49.8190 C   0  0  0  0  0  0  0  0  0  0  0  0
 -117.0152   55.9089  -48.9693 C   0  0  0  0  0  0  0  0  0  0  0  0
 -119.0372   55.1798  -49.5067 C   0  0  0  0  0  0  0  0  0  0  0  0
 -120.1027   54.2509  -49.4532 C   0  0  0  0  0  0  0  0  0  0  0  0
 -119.9779   53.1454  -48.7099 C   0  0  0  0  0  0  0  0  0  0  0  0
 -118.7002   52.9718  -47.9785 C   0  0  0  0  0  0  0  0  0  0  0  0
 -118.9053   56.3233  -50.1482 N   0  0  0  0  0  0  0  0  0  0  0  0
 -117.6921   53.7874  -47.9898 N   0  0  0  0  0  0  0  0  0  0  0  0
 -117.9029   54.8844  -48.7703 N   0  0  0  0  0  0  0  0  0  0  0  0
 -107.0683   61.6479  -47.0623 C   0  0  0  0  0  0  0  0  0  0  0  0
 -108.1125   60.7508  -46.8377 C   0  0  0  0  0  0  0  0  0  0  0  0
 -106.8578   59.0117  -47.9507 C   0  0  0  0  0  0  0  0  0  0  0  0
 -105.9189   61.2269  -47.7312 C   0  0  0  0  0  0  0  0  0  0  0  0
 -105.8136   59.9088  -48.1752 C   0  0  0  0  0  0  0  0  0  0  0  0
 -108.0072   59.4326  -47.2819 C   0  0  0  0  0  0  0  0  0  0  0  0
 -104.5917   59.4353  -48.8917 C   0  0  0  0  0  0  0  0  0  0  0  0
 -103.9952   60.4012  -49.6498 F   0  0  0  0  0  0  0  0  0  0  0  0
 -103.6125   58.9804  -48.0564 F   0  0  0  0  0  0  0  0  0  0  0  0
 -104.8531   58.4055  -49.7472 F   0  0  0  0  0  0  0  0  0  0  0  0
 -104.8094   62.2102  -47.9619 C   0  0  0  0  0  0  0  0  0  0  0  0
 -101.3027   62.1091  -46.4497 C   0  0  0  0  0  0  0  0  0  0  0  0
 -102.9161   62.8989  -44.7157 C   0  0  0  0  0  0  0  0  0  0  0  0
 -102.3563   62.3127  -47.5234 C   0  0  0  0  0  0  0  0  0  0  0  0
 -103.9705   63.1020  -45.7889 C   0  0  0  0  0  0  0  0  0  0  0  0
 -100.4627   63.0061  -44.2791 C   0  0  0  0  0  0  0  0  0  0  0  0
 -101.5450   63.0797  -45.3199 N   0  0  0  0  0  0  0  0  0  0  0  0
 -103.7280   62.1331  -46.9203 N   0  0  0  0  0  0  0  0  0  0  0  0
 -101.5052   64.0292  -45.7156 H   0  0  0  0  0  0  0  0  0  0  0  0
 -103.7692   61.1829  -46.5264 H   0  0  0  0  0  0  0  0  0  0  0  0
 12 13  3  0  0  0
 12  8  1  0  0  0
 13 15  1  0  0  0
  5  6  1  0  0  0
  5  9  2  0  0  0
  6 10  2  0  0  0
 23 24  1  0  0  0
 23 26  2  0  0  0
 24 28  2  0  0  0
  7  8  2  0  0  0
  7  9  1  0  0  0
 25 27  2  0  0  0
 25 28  1  0  0  0
 14 15  2  0  0  0
 14 20  1  0  0  0
  8 10  1  0  0  0
 15 22  1  0  0  0
  9  1  1  0  0  0
 10 11  1  0  0  0
 26 27  1  0  0  0
 26 33  1  0  0  0
 27 29  1  0  0  0
 28  2  1  0  0  0
 16 17  1  0  0  0
 16 20  2  0  0  0
 16 22  1  0  0  0
 17 18  2  0  0  0
 18 19  1  0  0  0
 19 21  2  0  0  0
  1  2  1  0  0  0
  1  3  2  0  0  0
 34 36  1  0  0  0
 34 39  1  0  0  0
 35 37  1  0  0  0
 35 39  1  0  0  0
 36 40  1  0  0  0
 37 40  1  0  0  0
 38 39  1  0  0  0
 33 40  1  0  0  0
 29 30  1  0  0  0
 29 31  1  0  0  0
 29 32  1  0  0  0
 21 22  1  0  0  0
  2  4  1  0  0  0
 39 41  1  0  0  0
 40 42  1  0  0  0
M  CHG 1  39   1
M  CHG 1  40   1
M  END
> <minimizedAffinity>
-8.73845

> <CNNscore>
0.1334501505

> <CNNaffinity>
6.1906385422

> <CNN_VS>
0.8261416554

> <CNNaffinity_variance>
0.5498128533

$$$$
