*****


 42 46  0  0  0  0  0  0  0  0999 V2000
 -112.5496   62.2942  -48.6470 C   0  0  0  0  0  0  0  0  0  0  0  0
 -111.5357   61.3297  -48.8171 N   0  0  0  0  0  0  0  0  0  0  0  0
 -112.3339   63.4812  -48.4118 O   0  0  0  0  0  0  0  0  0  0  0  0
 -111.8562   60.3622  -48.9399 H   0  0  0  0  0  0  0  0  0  0  0  0
 -114.9575   62.6055  -49.1673 C   0  0  0  0  0  0  0  0  0  0  0  0
 -116.2612   62.1157  -49.2461 C   0  0  0  0  0  0  0  0  0  0  0  0
 -114.1977   60.4555  -48.3693 C   0  0  0  0  0  0  0  0  0  0  0  0
 -115.5013   59.9655  -48.4480 C   0  0  0  0  0  0  0  0  0  0  0  0
 -113.9258   61.7754  -48.7291 C   0  0  0  0  0  0  0  0  0  0  0  0
 -116.5331   60.7958  -48.8864 C   0  0  0  0  0  0  0  0  0  0  0  0
 -117.9423   60.3054  -48.9825 C   0  0  0  0  0  0  0  0  0  0  0  0
 -115.7551   58.6075  -48.0742 C   0  0  0  0  0  0  0  0  0  0  0  0
 -115.9680   57.4675  -47.7607 C   0  0  0  0  0  0  0  0  0  0  0  0
 -115.4310   55.2661  -46.6448 C   0  0  0  0  0  0  0  0  0  0  0  0
 -116.2215   56.1101  -47.3875 C   0  0  0  0  0  0  0  0  0  0  0  0
 -117.1626   54.1187  -47.1483 C   0  0  0  0  0  0  0  0  0  0  0  0
 -118.1967   53.1754  -47.3526 C   0  0  0  0  0  0  0  0  0  0  0  0
 -119.2754   53.5222  -48.0642 C   0  0  0  0  0  0  0  0  0  0  0  0
 -119.3074   54.9042  -48.5999 C   0  0  0  0  0  0  0  0  0  0  0  0
 -116.0184   54.0353  -46.5000 N   0  0  0  0  0  0  0  0  0  0  0  0
 -118.3915   55.8090  -48.4452 N   0  0  0  0  0  0  0  0  0  0  0  0
 -117.3306   55.3730  -47.7093 N   0  0  0  0  0  0  0  0  0  0  0  0
 -107.9383   60.8498  -48.1454 C   0  0  0  0  0  0  0  0  0  0  0  0
 -109.3202   60.6622  -48.1203 C   0  0  0  0  0  0  0  0  0  0  0  0
 -109.6048   62.5620  -49.5855 C   0  0  0  0  0  0  0  0  0  0  0  0
 -107.3896   61.8937  -48.8905 C   0  0  0  0  0  0  0  0  0  0  0  0
 -108.2229   62.7497  -49.6106 C   0  0  0  0  0  0  0  0  0  0  0  0
 -110.1535   61.5182  -48.8404 C   0  0  0  0  0  0  0  0  0  0  0  0
 -107.6578   63.8726  -50.4169 C   0  0  0  0  0  0  0  0  0  0  0  0
 -108.6062   64.6085  -51.0670 F   0  0  0  0  0  0  0  0  0  0  0  0
 -106.9516   64.7746  -49.6747 F   0  0  0  0  0  0  0  0  0  0  0  0
 -106.7996   63.4409  -51.3854 F   0  0  0  0  0  0  0  0  0  0  0  0
 -105.9005   62.0761  -48.9015 C   0  0  0  0  0  0  0  0  0  0  0  0
 -103.6833   59.0583  -48.1462 C   0  0  0  0  0  0  0  0  0  0  0  0
 -103.7761   60.5273  -46.1294 C   0  0  0  0  0  0  0  0  0  0  0  0
 -104.2988   60.1660  -48.9819 C   0  0  0  0  0  0  0  0  0  0  0  0
 -104.3923   61.6352  -46.9645 C   0  0  0  0  0  0  0  0  0  0  0  0
 -102.1708   58.6200  -46.2118 C   0  0  0  0  0  0  0  0  0  0  0  0
 -102.9016   59.6656  -47.0072 N   0  0  0  0  0  0  0  0  0  0  0  0
 -105.1728   61.0290  -48.1051 N   0  0  0  0  0  0  0  0  0  0  0  0
 -102.1815   60.2755  -47.4186 H   0  0  0  0  0  0  0  0  0  0  0  0
 -105.8945   60.4200  -47.6952 H   0  0  0  0  0  0  0  0  0  0  0  0
 12 13  3  0  0  0
 12  8  1  0  0  0
 13 15  1  0  0  0
  5  6  1  0  0  0
  5  9  2  0  0  0
  6 10  2  0  0  0
 23 24  1  0  0  0
 23 26  2  0  0  0
 24 28  2  0  0  0
  7  8  2  0  0  0
  7  9  1  0  0  0
 25 27  2  0  0  0
 25 28  1  0  0  0
 14 15  2  0  0  0
 14 20  1  0  0  0
  8 10  1  0  0  0
 15 22  1  0  0  0
  9  1  1  0  0  0
 10 11  1  0  0  0
 26 27  1  0  0  0
 26 33  1  0  0  0
 27 29  1  0  0  0
 28  2  1  0  0  0
 16 17  1  0  0  0
 16 20  2  0  0  0
 16 22  1  0  0  0
 17 18  2  0  0  0
 18 19  1  0  0  0
 19 21  2  0  0  0
  1  2  1  0  0  0
  1  3  2  0  0  0
 34 36  1  0  0  0
 34 39  1  0  0  0
 35 37  1  0  0  0
 35 39  1  0  0  0
 36 40  1  0  0  0
 37 40  1  0  0  0
 38 39  1  0  0  0
 33 40  1  0  0  0
 29 30  1  0  0  0
 29 31  1  0  0  0
 29 32  1  0  0  0
 21 22  1  0  0  0
  2  4  1  0  0  0
 39 41  1  0  0  0
 40 42  1  0  0  0
M  CHG 1  39   1
M  CHG 1  40   1
M  END
> <minimizedAffinity>
-8.14842

> <CNNscore>
0.3755604327

> <CNNaffinity>
6.6079988480

> <CNN_VS>
2.4817028046

> <CNNaffinity_variance>
0.4196282923

$$$$
*****


 42 46  0  0  0  0  0  0  0  0999 V2000
 -113.1717   60.8312  -48.5936 C   0  0  0  0  0  0  0  0  0  0  0  0
 -112.2512   61.8418  -48.2494 N   0  0  0  0  0  0  0  0  0  0  0  0
 -114.1871   61.0264  -49.2583 O   0  0  0  0  0  0  0  0  0  0  0  0
 -111.4828   61.5542  -47.6323 H   0  0  0  0  0  0  0  0  0  0  0  0
 -111.5702   59.2060  -47.6142 C   0  0  0  0  0  0  0  0  0  0  0  0
 -111.2734   57.9401  -47.1089 C   0  0  0  0  0  0  0  0  0  0  0  0
 -113.8527   58.5158  -48.0026 C   0  0  0  0  0  0  0  0  0  0  0  0
 -113.5559   57.2499  -47.4975 C   0  0  0  0  0  0  0  0  0  0  0  0
 -112.8599   59.4939  -48.0609 C   0  0  0  0  0  0  0  0  0  0  0  0
 -112.2662   56.9622  -47.0506 C   0  0  0  0  0  0  0  0  0  0  0  0
 -111.9116   55.6164  -46.5040 C   0  0  0  0  0  0  0  0  0  0  0  0
 -114.5918   56.2635  -47.4470 C   0  0  0  0  0  0  0  0  0  0  0  0
 -115.4611   55.4355  -47.4045 C   0  0  0  0  0  0  0  0  0  0  0  0
 -116.5640   53.3212  -46.5721 C   0  0  0  0  0  0  0  0  0  0  0  0
 -116.4961   54.4495  -47.3537 C   0  0  0  0  0  0  0  0  0  0  0  0
 -118.3598   53.3124  -47.7312 C   0  0  0  0  0  0  0  0  0  0  0  0
 -119.5997   53.0936  -48.3760 C   0  0  0  0  0  0  0  0  0  0  0  0
 -120.0295   53.9671  -49.2940 C   0  0  0  0  0  0  0  0  0  0  0  0
 -119.1520   55.1286  -49.5746 C   0  0  0  0  0  0  0  0  0  0  0  0
 -117.7193   52.6215  -46.8099 N   0  0  0  0  0  0  0  0  0  0  0  0
 -118.0088   55.3798  -49.0165 N   0  0  0  0  0  0  0  0  0  0  0  0
 -117.6478   54.4421  -48.0958 N   0  0  0  0  0  0  0  0  0  0  0  0
 -111.4007   64.9490  -50.0506 C   0  0  0  0  0  0  0  0  0  0  0  0
 -111.4022   63.6097  -49.6613 C   0  0  0  0  0  0  0  0  0  0  0  0
 -113.0920   64.0935  -48.0037 C   0  0  0  0  0  0  0  0  0  0  0  0
 -112.2448   65.8607  -49.4164 C   0  0  0  0  0  0  0  0  0  0  0  0
 -113.0905   65.4328  -48.3930 C   0  0  0  0  0  0  0  0  0  0  0  0
 -112.2479   63.1818  -48.6378 C   0  0  0  0  0  0  0  0  0  0  0  0
 -114.0042   66.3905  -47.7012 C   0  0  0  0  0  0  0  0  0  0  0  0
 -115.0749   66.7674  -48.4595 F   0  0  0  0  0  0  0  0  0  0  0  0
 -114.5395   65.8955  -46.5472 F   0  0  0  0  0  0  0  0  0  0  0  0
 -113.3772   67.5495  -47.3484 F   0  0  0  0  0  0  0  0  0  0  0  0
 -112.2248   67.2963  -49.8519 C   0  0  0  0  0  0  0  0  0  0  0  0
 -114.9488   68.9624  -51.9490 C   0  0  0  0  0  0  0  0  0  0  0  0
 -113.3403   67.8077  -53.4699 C   0  0  0  0  0  0  0  0  0  0  0  0
 -113.9743   68.8024  -50.7962 C   0  0  0  0  0  0  0  0  0  0  0  0
 -112.3656   67.6467  -52.3173 C   0  0  0  0  0  0  0  0  0  0  0  0
 -115.0867   69.3178  -54.4140 C   0  0  0  0  0  0  0  0  0  0  0  0
 -114.1816   69.0406  -53.2461 N   0  0  0  0  0  0  0  0  0  0  0  0
 -113.1317   67.5704  -51.0193 N   0  0  0  0  0  0  0  0  0  0  0  0
 -113.5404   69.8430  -53.1769 H   0  0  0  0  0  0  0  0  0  0  0  0
 -113.7721   66.7673  -51.0863 H   0  0  0  0  0  0  0  0  0  0  0  0
 12 13  3  0  0  0
 12  8  1  0  0  0
 13 15  1  0  0  0
  5  6  1  0  0  0
  5  9  2  0  0  0
  6 10  2  0  0  0
 23 24  1  0  0  0
 23 26  2  0  0  0
 24 28  2  0  0  0
  7  8  2  0  0  0
  7  9  1  0  0  0
 25 27  2  0  0  0
 25 28  1  0  0  0
 14 15  2  0  0  0
 14 20  1  0  0  0
  8 10  1  0  0  0
 15 22  1  0  0  0
  9  1  1  0  0  0
 10 11  1  0  0  0
 26 27  1  0  0  0
 26 33  1  0  0  0
 27 29  1  0  0  0
 28  2  1  0  0  0
 16 17  1  0  0  0
 16 20  2  0  0  0
 16 22  1  0  0  0
 17 18  2  0  0  0
 18 19  1  0  0  0
 19 21  2  0  0  0
  1  2  1  0  0  0
  1  3  2  0  0  0
 34 36  1  0  0  0
 34 39  1  0  0  0
 35 37  1  0  0  0
 35 39  1  0  0  0
 36 40  1  0  0  0
 37 40  1  0  0  0
 38 39  1  0  0  0
 33 40  1  0  0  0
 29 30  1  0  0  0
 29 31  1  0  0  0
 29 32  1  0  0  0
 21 22  1  0  0  0
  2  4  1  0  0  0
 39 41  1  0  0  0
 40 42  1  0  0  0
M  CHG 1  39   1
M  CHG 1  40   1
M  END
> <minimizedAffinity>
-7.62817

> <CNNscore>
0.2151566893

> <CNNaffinity>
6.2196912766

> <CNN_VS>
1.3382081985

> <CNNaffinity_variance>
0.6214984655

$$$$
*****


 42 46  0  0  0  0  0  0  0  0999 V2000
 -112.5188   61.5869  -48.7499 C   0  0  0  0  0  0  0  0  0  0  0  0
 -111.7323   60.8838  -47.8149 N   0  0  0  0  0  0  0  0  0  0  0  0
 -112.0788   62.4553  -49.5003 O   0  0  0  0  0  0  0  0  0  0  0  0
 -112.2402   60.2343  -47.2033 H   0  0  0  0  0  0  0  0  0  0  0  0
 -114.9021   62.2121  -49.0575 C   0  0  0  0  0  0  0  0  0  0  0  0
 -116.2581   61.8854  -49.0572 C   0  0  0  0  0  0  0  0  0  0  0  0
 -114.3548   59.9417  -48.4392 C   0  0  0  0  0  0  0  0  0  0  0  0
 -115.7108   59.6148  -48.4388 C   0  0  0  0  0  0  0  0  0  0  0  0
 -113.9504   61.2403  -48.7487 C   0  0  0  0  0  0  0  0  0  0  0  0
 -116.6625   60.5868  -48.7478 C   0  0  0  0  0  0  0  0  0  0  0  0
 -118.1243   60.2730  -48.7563 C   0  0  0  0  0  0  0  0  0  0  0  0
 -116.1008   58.2754  -48.1189 C   0  0  0  0  0  0  0  0  0  0  0  0
 -116.4280   57.1511  -47.8504 C   0  0  0  0  0  0  0  0  0  0  0  0
 -116.2517   54.9519  -46.6208 C   0  0  0  0  0  0  0  0  0  0  0  0
 -116.8175   55.8124  -47.5308 C   0  0  0  0  0  0  0  0  0  0  0  0
 -117.8736   53.8652  -47.4907 C   0  0  0  0  0  0  0  0  0  0  0  0
 -118.8752   52.9602  -47.9138 C   0  0  0  0  0  0  0  0  0  0  0  0
 -119.7501   53.3362  -48.8538 C   0  0  0  0  0  0  0  0  0  0  0  0
 -119.6008   54.7077  -49.3963 C   0  0  0  0  0  0  0  0  0  0  0  0
 -116.9093   53.7486  -46.6003 N   0  0  0  0  0  0  0  0  0  0  0  0
 -118.7049   55.5780  -49.0478 N   0  0  0  0  0  0  0  0  0  0  0  0
 -117.8566   55.1141  -48.0873 N   0  0  0  0  0  0  0  0  0  0  0  0
 -108.4144   62.1609  -46.8234 C   0  0  0  0  0  0  0  0  0  0  0  0
 -109.7924   62.0906  -47.0278 C   0  0  0  0  0  0  0  0  0  0  0  0
 -109.5372   59.8902  -47.9922 C   0  0  0  0  0  0  0  0  0  0  0  0
 -107.5977   61.0958  -47.2036 C   0  0  0  0  0  0  0  0  0  0  0  0
 -108.1592   59.9605  -47.7879 C   0  0  0  0  0  0  0  0  0  0  0  0
 -110.3538   60.9552  -47.6121 C   0  0  0  0  0  0  0  0  0  0  0  0
 -107.3048   58.8072  -48.2009 C   0  0  0  0  0  0  0  0  0  0  0  0
 -106.6238   58.2346  -47.1656 F   0  0  0  0  0  0  0  0  0  0  0  0
 -108.0070   57.7872  -48.7751 F   0  0  0  0  0  0  0  0  0  0  0  0
 -106.3556   59.1604  -49.1147 F   0  0  0  0  0  0  0  0  0  0  0  0
 -106.1183   61.1948  -46.9745 C   0  0  0  0  0  0  0  0  0  0  0  0
 -104.9033   62.2322  -43.5045 C   0  0  0  0  0  0  0  0  0  0  0  0
 -106.3145   60.1832  -43.2957 C   0  0  0  0  0  0  0  0  0  0  0  0
 -105.3904   62.4230  -44.9295 C   0  0  0  0  0  0  0  0  0  0  0  0
 -106.8014   60.3729  -44.7209 C   0  0  0  0  0  0  0  0  0  0  0  0
 -105.5907   61.4142  -41.2506 C   0  0  0  0  0  0  0  0  0  0  0  0
 -105.9684   61.5266  -42.7014 N   0  0  0  0  0  0  0  0  0  0  0  0
 -105.7378   61.0803  -45.5246 N   0  0  0  0  0  0  0  0  0  0  0  0
 -106.8173   62.1077  -42.7378 H   0  0  0  0  0  0  0  0  0  0  0  0
 -104.8886   60.4994  -45.4905 H   0  0  0  0  0  0  0  0  0  0  0  0
 12 13  3  0  0  0
 12  8  1  0  0  0
 13 15  1  0  0  0
  5  6  1  0  0  0
  5  9  2  0  0  0
  6 10  2  0  0  0
 23 24  1  0  0  0
 23 26  2  0  0  0
 24 28  2  0  0  0
  7  8  2  0  0  0
  7  9  1  0  0  0
 25 27  2  0  0  0
 25 28  1  0  0  0
 14 15  2  0  0  0
 14 20  1  0  0  0
  8 10  1  0  0  0
 15 22  1  0  0  0
  9  1  1  0  0  0
 10 11  1  0  0  0
 26 27  1  0  0  0
 26 33  1  0  0  0
 27 29  1  0  0  0
 28  2  1  0  0  0
 16 17  1  0  0  0
 16 20  2  0  0  0
 16 22  1  0  0  0
 17 18  2  0  0  0
 18 19  1  0  0  0
 19 21  2  0  0  0
  1  2  1  0  0  0
  1  3  2  0  0  0
 34 36  1  0  0  0
 34 39  1  0  0  0
 35 37  1  0  0  0
 35 39  1  0  0  0
 36 40  1  0  0  0
 37 40  1  0  0  0
 38 39  1  0  0  0
 33 40  1  0  0  0
 29 30  1  0  0  0
 29 31  1  0  0  0
 29 32  1  0  0  0
 21 22  1  0  0  0
  2  4  1  0  0  0
 39 41  1  0  0  0
 40 42  1  0  0  0
M  CHG 1  39   1
M  CHG 1  40   1
M  END
> <minimizedAffinity>
-7.94293

> <CNNscore>
0.1634691656

> <CNNaffinity>
6.4076509476

> <CNN_VS>
1.0474534035

> <CNNaffinity_variance>
0.3609717190

$$$$
*****


 42 46  0  0  0  0  0  0  0  0999 V2000
 -110.7000   59.2724  -47.3290 C   0  0  0  0  0  0  0  0  0  0  0  0
 -109.7023   59.6034  -46.3897 N   0  0  0  0  0  0  0  0  0  0  0  0
 -111.0162   59.9907  -48.2749 O   0  0  0  0  0  0  0  0  0  0  0  0
 -109.5873   58.9454  -45.6103 H   0  0  0  0  0  0  0  0  0  0  0  0
 -110.7726   57.0039  -46.3219 C   0  0  0  0  0  0  0  0  0  0  0  0
 -111.4269   55.7947  -46.0865 C   0  0  0  0  0  0  0  0  0  0  0  0
 -112.6661   57.7786  -47.6069 C   0  0  0  0  0  0  0  0  0  0  0  0
 -113.3205   56.5694  -47.3717 C   0  0  0  0  0  0  0  0  0  0  0  0
 -111.3922   57.9959  -47.0819 C   0  0  0  0  0  0  0  0  0  0  0  0
 -112.7008   55.5775  -46.6114 C   0  0  0  0  0  0  0  0  0  0  0  0
 -113.3714   54.2691  -46.3397 C   0  0  0  0  0  0  0  0  0  0  0  0
 -114.6275   56.3705  -47.9201 C   0  0  0  0  0  0  0  0  0  0  0  0
 -115.7245   56.2033  -48.3804 C   0  0  0  0  0  0  0  0  0  0  0  0
 -117.7369   56.8253  -49.7742 C   0  0  0  0  0  0  0  0  0  0  0  0
 -117.0306   56.0041  -48.9283 C   0  0  0  0  0  0  0  0  0  0  0  0
 -119.0107   55.1444  -49.4273 C   0  0  0  0  0  0  0  0  0  0  0  0
 -120.0144   54.1506  -49.3495 C   0  0  0  0  0  0  0  0  0  0  0  0
 -119.8083   53.0616  -48.5999 C   0  0  0  0  0  0  0  0  0  0  0  0
 -118.5108   52.9753  -47.8880 C   0  0  0  0  0  0  0  0  0  0  0  0
 -118.9613   56.2883  -50.0796 N   0  0  0  0  0  0  0  0  0  0  0  0
 -117.5566   53.8527  -47.9218 N   0  0  0  0  0  0  0  0  0  0  0  0
 -117.8485   54.9275  -48.7071 N   0  0  0  0  0  0  0  0  0  0  0  0
 -106.6856   61.6856  -46.8216 C   0  0  0  0  0  0  0  0  0  0  0  0
 -107.5359   60.5800  -46.8285 C   0  0  0  0  0  0  0  0  0  0  0  0
 -109.3153   61.9428  -45.9265 C   0  0  0  0  0  0  0  0  0  0  0  0
 -107.1501   62.9198  -46.3669 C   0  0  0  0  0  0  0  0  0  0  0  0
 -108.4649   63.0484  -45.9195 C   0  0  0  0  0  0  0  0  0  0  0  0
 -108.8509   60.7086  -46.3810 C   0  0  0  0  0  0  0  0  0  0  0  0
 -108.9847   64.3604  -45.4303 C   0  0  0  0  0  0  0  0  0  0  0  0
 -110.2343   64.2834  -44.8864 F   0  0  0  0  0  0  0  0  0  0  0  0
 -108.2072   64.9274  -44.4621 F   0  0  0  0  0  0  0  0  0  0  0  0
 -109.0726   65.2913  -46.4235 F   0  0  0  0  0  0  0  0  0  0  0  0
 -106.2166   64.0945  -46.3681 C   0  0  0  0  0  0  0  0  0  0  0  0
 -105.5150   65.6767  -49.7736 C   0  0  0  0  0  0  0  0  0  0  0  0
 -103.4584   64.5046  -48.9796 C   0  0  0  0  0  0  0  0  0  0  0  0
 -106.1196   65.5563  -48.3865 C   0  0  0  0  0  0  0  0  0  0  0  0
 -104.0629   64.3831  -47.5924 C   0  0  0  0  0  0  0  0  0  0  0  0
 -103.3602   65.9705  -50.9953 C   0  0  0  0  0  0  0  0  0  0  0  0
 -104.0111   65.7324  -49.6612 N   0  0  0  0  0  0  0  0  0  0  0  0
 -105.5670   64.3293  -47.7034 N   0  0  0  0  0  0  0  0  0  0  0  0
 -103.7760   66.5438  -49.0729 H   0  0  0  0  0  0  0  0  0  0  0  0
 -105.8037   63.5173  -48.2901 H   0  0  0  0  0  0  0  0  0  0  0  0
 12 13  3  0  0  0
 12  8  1  0  0  0
 13 15  1  0  0  0
  5  6  1  0  0  0
  5  9  2  0  0  0
  6 10  2  0  0  0
 23 24  1  0  0  0
 23 26  2  0  0  0
 24 28  2  0  0  0
  7  8  2  0  0  0
  7  9  1  0  0  0
 25 27  2  0  0  0
 25 28  1  0  0  0
 14 15  2  0  0  0
 14 20  1  0  0  0
  8 10  1  0  0  0
 15 22  1  0  0  0
  9  1  1  0  0  0
 10 11  1  0  0  0
 26 27  1  0  0  0
 26 33  1  0  0  0
 27 29  1  0  0  0
 28  2  1  0  0  0
 16 17  1  0  0  0
 16 20  2  0  0  0
 16 22  1  0  0  0
 17 18  2  0  0  0
 18 19  1  0  0  0
 19 21  2  0  0  0
  1  2  1  0  0  0
  1  3  2  0  0  0
 34 36  1  0  0  0
 34 39  1  0  0  0
 35 37  1  0  0  0
 35 39  1  0  0  0
 36 40  1  0  0  0
 37 40  1  0  0  0
 38 39  1  0  0  0
 33 40  1  0  0  0
 29 30  1  0  0  0
 29 31  1  0  0  0
 29 32  1  0  0  0
 21 22  1  0  0  0
  2  4  1  0  0  0
 39 41  1  0  0  0
 40 42  1  0  0  0
M  CHG 1  39   1
M  CHG 1  40   1
M  END
> <minimizedAffinity>
-7.87061

> <CNNscore>
0.1622098088

> <CNNaffinity>
6.2276005745

> <CNN_VS>
1.0101778507

> <CNNaffinity_variance>
0.6714185476

$$$$
*****


 42 46  0  0  0  0  0  0  0  0999 V2000
 -112.7301   61.7604  -48.8115 C   0  0  0  0  0  0  0  0  0  0  0  0
 -111.8515   60.9498  -48.0642 N   0  0  0  0  0  0  0  0  0  0  0  0
 -112.3857   62.7826  -49.4007 O   0  0  0  0  0  0  0  0  0  0  0  0
 -112.2846   60.1635  -47.5662 H   0  0  0  0  0  0  0  0  0  0  0  0
 -115.1463   62.2237  -49.1482 C   0  0  0  0  0  0  0  0  0  0  0  0
 -116.4784   61.8100  -49.1503 C   0  0  0  0  0  0  0  0  0  0  0  0
 -114.4586   60.0064  -48.4791 C   0  0  0  0  0  0  0  0  0  0  0  0
 -115.7906   59.5926  -48.4812 C   0  0  0  0  0  0  0  0  0  0  0  0
 -114.1363   61.3219  -48.8128 C   0  0  0  0  0  0  0  0  0  0  0  0
 -116.8005   60.4945  -48.8168 C   0  0  0  0  0  0  0  0  0  0  0  0
 -118.2390   60.0867  -48.8288 C   0  0  0  0  0  0  0  0  0  0  0  0
 -116.0960   58.2375  -48.1362 C   0  0  0  0  0  0  0  0  0  0  0  0
 -116.3521   57.1001  -47.8467 C   0  0  0  0  0  0  0  0  0  0  0  0
 -115.9766   54.9061  -46.6530 C   0  0  0  0  0  0  0  0  0  0  0  0
 -116.6569   55.7457  -47.5021 C   0  0  0  0  0  0  0  0  0  0  0  0
 -117.6262   53.7572  -47.3793 C   0  0  0  0  0  0  0  0  0  0  0  0
 -118.6251   52.8138  -47.7157 C   0  0  0  0  0  0  0  0  0  0  0  0
 -119.5963   53.1569  -48.5697 C   0  0  0  0  0  0  0  0  0  0  0  0
 -119.5521   54.5351  -49.1142 C   0  0  0  0  0  0  0  0  0  0  0  0
 -116.5809   53.6770  -46.5809 N   0  0  0  0  0  0  0  0  0  0  0  0
 -118.6637   55.4398  -48.8427 N   0  0  0  0  0  0  0  0  0  0  0  0
 -117.7136   55.0077  -47.9665 N   0  0  0  0  0  0  0  0  0  0  0  0
 -108.5411   62.4183  -47.3522 C   0  0  0  0  0  0  0  0  0  0  0  0
 -109.9218   62.2925  -47.5050 C   0  0  0  0  0  0  0  0  0  0  0  0
 -109.6382   59.9867  -48.1687 C   0  0  0  0  0  0  0  0  0  0  0  0
 -107.7089   61.3283  -47.6078 C   0  0  0  0  0  0  0  0  0  0  0  0
 -108.2575   60.1126  -48.0159 C   0  0  0  0  0  0  0  0  0  0  0  0
 -110.4704   61.0766  -47.9132 C   0  0  0  0  0  0  0  0  0  0  0  0
 -107.3863   58.9316  -48.2931 C   0  0  0  0  0  0  0  0  0  0  0  0
 -108.0790   57.8234  -48.6874 F   0  0  0  0  0  0  0  0  0  0  0  0
 -106.4697   59.1508  -49.2806 F   0  0  0  0  0  0  0  0  0  0  0  0
 -106.6655   58.5456  -47.2012 F   0  0  0  0  0  0  0  0  0  0  0  0
 -106.2269   61.4881  -47.4373 C   0  0  0  0  0  0  0  0  0  0  0  0
 -103.6291   63.8187  -48.9907 C   0  0  0  0  0  0  0  0  0  0  0  0
 -105.6508   63.7597  -50.4546 C   0  0  0  0  0  0  0  0  0  0  0  0
 -104.1456   62.6123  -48.2279 C   0  0  0  0  0  0  0  0  0  0  0  0
 -106.1683   62.5536  -49.6916 C   0  0  0  0  0  0  0  0  0  0  0  0
 -103.5678   64.8797  -51.2474 C   0  0  0  0  0  0  0  0  0  0  0  0
 -104.1423   63.7718  -50.4090 N   0  0  0  0  0  0  0  0  0  0  0  0
 -105.6540   62.5984  -48.2735 N   0  0  0  0  0  0  0  0  0  0  0  0
 -103.8142   62.8899  -50.8263 H   0  0  0  0  0  0  0  0  0  0  0  0
 -105.9829   63.4792  -47.8542 H   0  0  0  0  0  0  0  0  0  0  0  0
 12 13  3  0  0  0
 12  8  1  0  0  0
 13 15  1  0  0  0
  5  6  1  0  0  0
  5  9  2  0  0  0
  6 10  2  0  0  0
 23 24  1  0  0  0
 23 26  2  0  0  0
 24 28  2  0  0  0
  7  8  2  0  0  0
  7  9  1  0  0  0
 25 27  2  0  0  0
 25 28  1  0  0  0
 14 15  2  0  0  0
 14 20  1  0  0  0
  8 10  1  0  0  0
 15 22  1  0  0  0
  9  1  1  0  0  0
 10 11  1  0  0  0
 26 27  1  0  0  0
 26 33  1  0  0  0
 27 29  1  0  0  0
 28  2  1  0  0  0
 16 17  1  0  0  0
 16 20  2  0  0  0
 16 22  1  0  0  0
 17 18  2  0  0  0
 18 19  1  0  0  0
 19 21  2  0  0  0
  1  2  1  0  0  0
  1  3  2  0  0  0
 34 36  1  0  0  0
 34 39  1  0  0  0
 35 37  1  0  0  0
 35 39  1  0  0  0
 36 40  1  0  0  0
 37 40  1  0  0  0
 38 39  1  0  0  0
 33 40  1  0  0  0
 29 30  1  0  0  0
 29 31  1  0  0  0
 29 32  1  0  0  0
 21 22  1  0  0  0
  2  4  1  0  0  0
 39 41  1  0  0  0
 40 42  1  0  0  0
M  CHG 1  39   1
M  CHG 1  40   1
M  END
> <minimizedAffinity>
-8.60013

> <CNNscore>
0.1589544713

> <CNNaffinity>
6.4241628647

> <CNN_VS>
1.0211493969

> <CNNaffinity_variance>
0.4222559035

$$$$
*****


 42 46  0  0  0  0  0  0  0  0999 V2000
 -112.5601   61.8752  -48.4757 C   0  0  0  0  0  0  0  0  0  0  0  0
 -111.5646   60.9051  -48.2408 N   0  0  0  0  0  0  0  0  0  0  0  0
 -112.3599   63.0871  -48.4325 O   0  0  0  0  0  0  0  0  0  0  0  0
 -111.8837   59.9294  -48.2404 H   0  0  0  0  0  0  0  0  0  0  0  0
 -114.8587   62.1344  -49.3784 C   0  0  0  0  0  0  0  0  0  0  0  0
 -116.1328   61.6272  -49.6338 C   0  0  0  0  0  0  0  0  0  0  0  0
 -114.2258   60.0346  -48.3650 C   0  0  0  0  0  0  0  0  0  0  0  0
 -115.4998   59.5273  -48.6202 C   0  0  0  0  0  0  0  0  0  0  0  0
 -113.9052   61.3381  -48.7442 C   0  0  0  0  0  0  0  0  0  0  0  0
 -116.4533   60.3237  -49.2547 C   0  0  0  0  0  0  0  0  0  0  0  0
 -117.8288   59.8139  -49.5435 C   0  0  0  0  0  0  0  0  0  0  0  0
 -115.8044   58.1866  -48.2225 C   0  0  0  0  0  0  0  0  0  0  0  0
 -116.0602   57.0613  -47.8885 C   0  0  0  0  0  0  0  0  0  0  0  0
 -115.6343   54.8830  -46.6832 C   0  0  0  0  0  0  0  0  0  0  0  0
 -116.3646   55.7215  -47.4907 C   0  0  0  0  0  0  0  0  0  0  0  0
 -117.3634   53.7592  -47.2450 C   0  0  0  0  0  0  0  0  0  0  0  0
 -118.4073   52.8331  -47.4769 C   0  0  0  0  0  0  0  0  0  0  0  0
 -119.4387   53.1822  -48.2545 C   0  0  0  0  0  0  0  0  0  0  0  0
 -119.4101   54.5479  -48.8304 C   0  0  0  0  0  0  0  0  0  0  0  0
 -116.2572   53.6702  -46.5347 N   0  0  0  0  0  0  0  0  0  0  0  0
 -118.4826   55.4366  -48.6532 N   0  0  0  0  0  0  0  0  0  0  0  0
 -117.4723   54.9996  -47.8498 N   0  0  0  0  0  0  0  0  0  0  0  0
 -108.0084   61.7090  -48.8147 C   0  0  0  0  0  0  0  0  0  0  0  0
 -109.3698   61.5145  -49.0476 C   0  0  0  0  0  0  0  0  0  0  0  0
 -109.6736   60.8757  -46.7374 C   0  0  0  0  0  0  0  0  0  0  0  0
 -107.4796   61.4868  -47.5432 C   0  0  0  0  0  0  0  0  0  0  0  0
 -108.3122   61.0703  -46.5046 C   0  0  0  0  0  0  0  0  0  0  0  0
 -110.2025   61.0979  -48.0089 C   0  0  0  0  0  0  0  0  0  0  0  0
 -107.7686   60.8282  -45.1347 C   0  0  0  0  0  0  0  0  0  0  0  0
 -106.9510   61.8261  -44.6882 F   0  0  0  0  0  0  0  0  0  0  0  0
 -108.7355   60.7033  -44.1793 F   0  0  0  0  0  0  0  0  0  0  0  0
 -107.0280   59.6851  -45.0603 F   0  0  0  0  0  0  0  0  0  0  0  0
 -106.0120   61.7019  -47.3172 C   0  0  0  0  0  0  0  0  0  0  0  0
 -103.8566   59.2484  -49.2992 C   0  0  0  0  0  0  0  0  0  0  0  0
 -103.4096   58.9421  -46.8619 C   0  0  0  0  0  0  0  0  0  0  0  0
 -104.5804   60.5494  -49.0033 C   0  0  0  0  0  0  0  0  0  0  0  0
 -104.1341   60.2427  -46.5653 C   0  0  0  0  0  0  0  0  0  0  0  0
 -101.9748   57.7935  -48.5482 C   0  0  0  0  0  0  0  0  0  0  0  0
 -102.8054   59.0089  -48.2432 N   0  0  0  0  0  0  0  0  0  0  0  0
 -105.1844   60.4843  -47.6218 N   0  0  0  0  0  0  0  0  0  0  0  0
 -102.1629   59.8131  -48.2602 H   0  0  0  0  0  0  0  0  0  0  0  0
 -105.8286   59.6816  -47.6049 H   0  0  0  0  0  0  0  0  0  0  0  0
 12 13  3  0  0  0
 12  8  1  0  0  0
 13 15  1  0  0  0
  5  6  1  0  0  0
  5  9  2  0  0  0
  6 10  2  0  0  0
 23 24  1  0  0  0
 23 26  2  0  0  0
 24 28  2  0  0  0
  7  8  2  0  0  0
  7  9  1  0  0  0
 25 27  2  0  0  0
 25 28  1  0  0  0
 14 15  2  0  0  0
 14 20  1  0  0  0
  8 10  1  0  0  0
 15 22  1  0  0  0
  9  1  1  0  0  0
 10 11  1  0  0  0
 26 27  1  0  0  0
 26 33  1  0  0  0
 27 29  1  0  0  0
 28  2  1  0  0  0
 16 17  1  0  0  0
 16 20  2  0  0  0
 16 22  1  0  0  0
 17 18  2  0  0  0
 18 19  1  0  0  0
 19 21  2  0  0  0
  1  2  1  0  0  0
  1  3  2  0  0  0
 34 36  1  0  0  0
 34 39  1  0  0  0
 35 37  1  0  0  0
 35 39  1  0  0  0
 36 40  1  0  0  0
 37 40  1  0  0  0
 38 39  1  0  0  0
 33 40  1  0  0  0
 29 30  1  0  0  0
 29 31  1  0  0  0
 29 32  1  0  0  0
 21 22  1  0  0  0
  2  4  1  0  0  0
 39 41  1  0  0  0
 40 42  1  0  0  0
M  CHG 1  39   1
M  CHG 1  40   1
M  END
> <minimizedAffinity>
-8.19710

> <CNNscore>
0.1551909596

> <CNNaffinity>
6.4557595253

> <CNN_VS>
1.0018755198

> <CNNaffinity_variance>
0.3925265074

$$$$
*****


 42 46  0  0  0  0  0  0  0  0999 V2000
 -110.7528   59.2028  -47.8160 C   0  0  0  0  0  0  0  0  0  0  0  0
 -110.0663   60.4338  -47.7884 N   0  0  0  0  0  0  0  0  0  0  0  0
 -110.1964   58.1071  -47.7911 O   0  0  0  0  0  0  0  0  0  0  0  0
 -110.6503   61.2726  -47.8844 H   0  0  0  0  0  0  0  0  0  0  0  0
 -112.8130   60.5456  -48.1600 C   0  0  0  0  0  0  0  0  0  0  0  0
 -114.2007   60.6456  -48.2598 C   0  0  0  0  0  0  0  0  0  0  0  0
 -113.0115   58.1678  -47.7808 C   0  0  0  0  0  0  0  0  0  0  0  0
 -114.3992   58.2677  -47.8805 C   0  0  0  0  0  0  0  0  0  0  0  0
 -112.2184   59.3067  -47.9206 C   0  0  0  0  0  0  0  0  0  0  0  0
 -114.9938   59.5067  -48.1201 C   0  0  0  0  0  0  0  0  0  0  0  0
 -116.4776   59.6518  -48.2321 C   0  0  0  0  0  0  0  0  0  0  0  0
 -115.1916   57.0848  -47.7344 C   0  0  0  0  0  0  0  0  0  0  0  0
 -115.8566   56.0918  -47.6119 C   0  0  0  0  0  0  0  0  0  0  0  0
 -116.4318   53.8323  -46.6408 C   0  0  0  0  0  0  0  0  0  0  0  0
 -116.6484   54.9095  -47.4663 C   0  0  0  0  0  0  0  0  0  0  0  0
 -118.2352   53.3805  -47.6954 C   0  0  0  0  0  0  0  0  0  0  0  0
 -119.4267   52.8686  -48.2606 C   0  0  0  0  0  0  0  0  0  0  0  0
 -120.0792   53.5834  -49.1844 C   0  0  0  0  0  0  0  0  0  0  0  0
 -119.4901   54.8917  -49.5570 C   0  0  0  0  0  0  0  0  0  0  0  0
 -117.4169   52.8893  -46.7869 N   0  0  0  0  0  0  0  0  0  0  0  0
 -118.4041   55.4102  -49.0741 N   0  0  0  0  0  0  0  0  0  0  0  0
 -117.8044   54.6181  -48.1412 N   0  0  0  0  0  0  0  0  0  0  0  0
 -106.5027   60.8947  -48.6315 C   0  0  0  0  0  0  0  0  0  0  0  0
 -107.8714   60.6656  -48.7722 C   0  0  0  0  0  0  0  0  0  0  0  0
 -108.1539   60.8854  -46.3828 C   0  0  0  0  0  0  0  0  0  0  0  0
 -105.9596   61.1191  -47.3663 C   0  0  0  0  0  0  0  0  0  0  0  0
 -106.7852   61.1145  -46.2421 C   0  0  0  0  0  0  0  0  0  0  0  0
 -108.6970   60.6610  -47.6479 C   0  0  0  0  0  0  0  0  0  0  0  0
 -106.2263   61.3544  -44.8780 C   0  0  0  0  0  0  0  0  0  0  0  0
 -107.1788   61.6234  -43.9379 F   0  0  0  0  0  0  0  0  0  0  0  0
 -105.5242   60.2936  -44.3828 F   0  0  0  0  0  0  0  0  0  0  0  0
 -105.3665   62.4128  -44.8438 F   0  0  0  0  0  0  0  0  0  0  0  0
 -104.4845   61.3623  -47.2399 C   0  0  0  0  0  0  0  0  0  0  0  0
 -102.2869   58.4558  -48.3871 C   0  0  0  0  0  0  0  0  0  0  0  0
 -102.0196   58.7573  -45.9230 C   0  0  0  0  0  0  0  0  0  0  0  0
 -102.9825   59.8020  -48.4768 C   0  0  0  0  0  0  0  0  0  0  0  0
 -102.7160   60.1033  -46.0119 C   0  0  0  0  0  0  0  0  0  0  0  0
 -100.5142   57.2006  -47.1608 C   0  0  0  0  0  0  0  0  0  0  0  0
 -101.3199   58.4680  -47.2285 N   0  0  0  0  0  0  0  0  0  0  0  0
 -103.6819   60.0930  -47.1715 N   0  0  0  0  0  0  0  0  0  0  0  0
 -100.6496   59.2313  -47.3949 H   0  0  0  0  0  0  0  0  0  0  0  0
 -104.3540   59.3311  -47.0058 H   0  0  0  0  0  0  0  0  0  0  0  0
 12 13  3  0  0  0
 12  8  1  0  0  0
 13 15  1  0  0  0
  5  6  1  0  0  0
  5  9  2  0  0  0
  6 10  2  0  0  0
 23 24  1  0  0  0
 23 26  2  0  0  0
 24 28  2  0  0  0
  7  8  2  0  0  0
  7  9  1  0  0  0
 25 27  2  0  0  0
 25 28  1  0  0  0
 14 15  2  0  0  0
 14 20  1  0  0  0
  8 10  1  0  0  0
 15 22  1  0  0  0
  9  1  1  0  0  0
 10 11  1  0  0  0
 26 27  1  0  0  0
 26 33  1  0  0  0
 27 29  1  0  0  0
 28  2  1  0  0  0
 16 17  1  0  0  0
 16 20  2  0  0  0
 16 22  1  0  0  0
 17 18  2  0  0  0
 18 19  1  0  0  0
 19 21  2  0  0  0
  1  2  1  0  0  0
  1  3  2  0  0  0
 34 36  1  0  0  0
 34 39  1  0  0  0
 35 37  1  0  0  0
 35 39  1  0  0  0
 36 40  1  0  0  0
 37 40  1  0  0  0
 38 39  1  0  0  0
 33 40  1  0  0  0
 29 30  1  0  0  0
 29 31  1  0  0  0
 29 32  1  0  0  0
 21 22  1  0  0  0
  2  4  1  0  0  0
 39 41  1  0  0  0
 40 42  1  0  0  0
M  CHG 1  39   1
M  CHG 1  40   1
M  END
> <minimizedAffinity>
-7.87289

> <CNNscore>
0.1500427872

> <CNNaffinity>
6.2033643723

> <CNN_VS>
0.9307700992

> <CNNaffinity_variance>
0.3502798378

$$$$
*****


 42 46  0  0  0  0  0  0  0  0999 V2000
 -112.6292   57.5257  -47.7808 C   0  0  0  0  0  0  0  0  0  0  0  0
 -113.6810   58.4499  -47.6170 N   0  0  0  0  0  0  0  0  0  0  0  0
 -112.5700   56.7102  -48.6986 O   0  0  0  0  0  0  0  0  0  0  0  0
 -113.6402   59.0266  -46.7687 H   0  0  0  0  0  0  0  0  0  0  0  0
 -111.0329   56.3787  -46.2635 C   0  0  0  0  0  0  0  0  0  0  0  0
 -110.0513   56.4153  -45.2732 C   0  0  0  0  0  0  0  0  0  0  0  0
 -111.1719   58.7902  -46.2151 C   0  0  0  0  0  0  0  0  0  0  0  0
 -110.1904   58.8269  -45.2247 C   0  0  0  0  0  0  0  0  0  0  0  0
 -111.5931   57.5661  -46.7346 C   0  0  0  0  0  0  0  0  0  0  0  0
 -109.6301   57.6394  -44.7537 C   0  0  0  0  0  0  0  0  0  0  0  0
 -108.5768   57.6402  -43.6926 C   0  0  0  0  0  0  0  0  0  0  0  0
 -109.7741   60.0951  -44.7080 C   0  0  0  0  0  0  0  0  0  0  0  0
 -109.4249   61.1596  -44.2744 C   0  0  0  0  0  0  0  0  0  0  0  0
 -109.0710   63.6588  -44.3647 C   0  0  0  0  0  0  0  0  0  0  0  0
 -109.0092   62.4272  -43.7581 C   0  0  0  0  0  0  0  0  0  0  0  0
 -108.2058   64.0196  -42.4438 C   0  0  0  0  0  0  0  0  0  0  0  0
 -107.6260   64.4982  -41.2456 C   0  0  0  0  0  0  0  0  0  0  0  0
 -107.3457   63.6392  -40.2588 C   0  0  0  0  0  0  0  0  0  0  0  0
 -107.6714   62.2133  -40.5006 C   0  0  0  0  0  0  0  0  0  0  0  0
 -108.5725   64.6404  -43.5468 N   0  0  0  0  0  0  0  0  0  0  0  0
 -108.2016   61.7185  -41.5755 N   0  0  0  0  0  0  0  0  0  0  0  0
 -108.4545   62.6604  -42.5273 N   0  0  0  0  0  0  0  0  0  0  0  0
 -115.7163   59.7418  -50.4118 C   0  0  0  0  0  0  0  0  0  0  0  0
 -114.6277   59.5105  -49.5710 C   0  0  0  0  0  0  0  0  0  0  0  0
 -116.0014   58.0870  -48.1840 C   0  0  0  0  0  0  0  0  0  0  0  0
 -116.9476   59.1457  -50.1386 C   0  0  0  0  0  0  0  0  0  0  0  0
 -117.0900   58.3183  -49.0248 C   0  0  0  0  0  0  0  0  0  0  0  0
 -114.7702   58.6830  -48.4571 C   0  0  0  0  0  0  0  0  0  0  0  0
 -118.3979   57.6678  -48.7137 C   0  0  0  0  0  0  0  0  0  0  0  0
 -118.8081   56.7834  -49.6693 F   0  0  0  0  0  0  0  0  0  0  0  0
 -118.3893   56.9571  -47.5483 F   0  0  0  0  0  0  0  0  0  0  0  0
 -119.4136   58.5696  -48.5872 F   0  0  0  0  0  0  0  0  0  0  0  0
 -118.1042   59.4101  -51.0569 C   0  0  0  0  0  0  0  0  0  0  0  0
 -117.6123   62.4887  -53.2646 C   0  0  0  0  0  0  0  0  0  0  0  0
 -119.5733   62.8649  -51.7657 C   0  0  0  0  0  0  0  0  0  0  0  0
 -117.6191   61.0142  -52.9041 C   0  0  0  0  0  0  0  0  0  0  0  0
 -119.5801   61.3905  -51.4041 C   0  0  0  0  0  0  0  0  0  0  0  0
 -119.0910   64.4665  -53.6161 C   0  0  0  0  0  0  0  0  0  0  0  0
 -119.0141   63.0370  -53.1568 N   0  0  0  0  0  0  0  0  0  0  0  0
 -118.1790   60.8406  -51.5134 N   0  0  0  0  0  0  0  0  0  0  0  0
 -119.6080   62.4923  -53.7974 H   0  0  0  0  0  0  0  0  0  0  0  0
 -117.5841   61.3832  -50.8721 H   0  0  0  0  0  0  0  0  0  0  0  0
 12 13  3  0  0  0
 12  8  1  0  0  0
 13 15  1  0  0  0
  5  6  1  0  0  0
  5  9  2  0  0  0
  6 10  2  0  0  0
 23 24  1  0  0  0
 23 26  2  0  0  0
 24 28  2  0  0  0
  7  8  2  0  0  0
  7  9  1  0  0  0
 25 27  2  0  0  0
 25 28  1  0  0  0
 14 15  2  0  0  0
 14 20  1  0  0  0
  8 10  1  0  0  0
 15 22  1  0  0  0
  9  1  1  0  0  0
 10 11  1  0  0  0
 26 27  1  0  0  0
 26 33  1  0  0  0
 27 29  1  0  0  0
 28  2  1  0  0  0
 16 17  1  0  0  0
 16 20  2  0  0  0
 16 22  1  0  0  0
 17 18  2  0  0  0
 18 19  1  0  0  0
 19 21  2  0  0  0
  1  2  1  0  0  0
  1  3  2  0  0  0
 34 36  1  0  0  0
 34 39  1  0  0  0
 35 37  1  0  0  0
 35 39  1  0  0  0
 36 40  1  0  0  0
 37 40  1  0  0  0
 38 39  1  0  0  0
 33 40  1  0  0  0
 29 30  1  0  0  0
 29 31  1  0  0  0
 29 32  1  0  0  0
 21 22  1  0  0  0
  2  4  1  0  0  0
 39 41  1  0  0  0
 40 42  1  0  0  0
M  CHG 1  39   1
M  CHG 1  40   1
M  END
> <minimizedAffinity>
-7.67708

> <CNNscore>
0.1382013112

> <CNNaffinity>
6.1878247261

> <CNN_VS>
0.8551654816

> <CNNaffinity_variance>
0.7174720764

$$$$
*****


 42 46  0  0  0  0  0  0  0  0999 V2000
 -110.0615   58.5484  -47.7013 C   0  0  0  0  0  0  0  0  0  0  0  0
 -109.3093   59.6583  -47.2659 N   0  0  0  0  0  0  0  0  0  0  0  0
 -109.5665   57.4762  -48.0423 O   0  0  0  0  0  0  0  0  0  0  0  0
 -109.8445   60.5138  -47.0774 H   0  0  0  0  0  0  0  0  0  0  0  0
 -112.0205   60.0526  -47.9566 C   0  0  0  0  0  0  0  0  0  0  0  0
 -113.3984   60.2604  -48.0179 C   0  0  0  0  0  0  0  0  0  0  0  0
 -112.3913   57.6870  -47.6351 C   0  0  0  0  0  0  0  0  0  0  0  0
 -113.7692   57.8947  -47.6964 C   0  0  0  0  0  0  0  0  0  0  0  0
 -111.5169   58.7660  -47.7653 C   0  0  0  0  0  0  0  0  0  0  0  0
 -114.2728   59.1814  -47.8878 C   0  0  0  0  0  0  0  0  0  0  0  0
 -115.7434   59.4418  -47.9576 C   0  0  0  0  0  0  0  0  0  0  0  0
 -114.6461   56.7716  -47.5610 C   0  0  0  0  0  0  0  0  0  0  0  0
 -115.3820   55.8288  -47.4475 C   0  0  0  0  0  0  0  0  0  0  0  0
 -116.1019   53.5901  -46.5260 C   0  0  0  0  0  0  0  0  0  0  0  0
 -116.2580   54.7062  -47.3125 C   0  0  0  0  0  0  0  0  0  0  0  0
 -117.9637   53.3103  -47.5379 C   0  0  0  0  0  0  0  0  0  0  0  0
 -119.2064   52.9086  -48.0813 C   0  0  0  0  0  0  0  0  0  0  0  0
 -119.8278   53.6998  -48.9635 C   0  0  0  0  0  0  0  0  0  0  0  0
 -119.1503   54.9706  -49.3154 C   0  0  0  0  0  0  0  0  0  0  0  0
 -117.1604   52.7299  -46.6695 N   0  0  0  0  0  0  0  0  0  0  0  0
 -118.0145   55.3895  -48.8508 N   0  0  0  0  0  0  0  0  0  0  0  0
 -117.4516   54.5250  -47.9602 N   0  0  0  0  0  0  0  0  0  0  0  0
 -105.9820   59.2473  -45.7224 C   0  0  0  0  0  0  0  0  0  0  0  0
 -107.3587   59.1611  -45.9290 C   0  0  0  0  0  0  0  0  0  0  0  0
 -107.1295   60.4172  -47.9801 C   0  0  0  0  0  0  0  0  0  0  0  0
 -105.1790   59.9186  -46.6446 C   0  0  0  0  0  0  0  0  0  0  0  0
 -105.7528   60.5034  -47.7734 C   0  0  0  0  0  0  0  0  0  0  0  0
 -107.9325   59.7460  -47.0579 C   0  0  0  0  0  0  0  0  0  0  0  0
 -104.9126   61.2253  -48.7752 C   0  0  0  0  0  0  0  0  0  0  0  0
 -104.2333   62.2879  -48.2529 F   0  0  0  0  0  0  0  0  0  0  0  0
 -103.9579   60.4392  -49.3530 F   0  0  0  0  0  0  0  0  0  0  0  0
 -105.6476   61.7302  -49.8075 F   0  0  0  0  0  0  0  0  0  0  0  0
 -103.7008   59.9989  -46.4004 C   0  0  0  0  0  0  0  0  0  0  0  0
 -101.2713   57.1497  -47.1573 C   0  0  0  0  0  0  0  0  0  0  0  0
 -102.1775   56.8574  -44.8492 C   0  0  0  0  0  0  0  0  0  0  0  0
 -101.8222   58.5636  -47.1950 C   0  0  0  0  0  0  0  0  0  0  0  0
 -102.7293   58.2711  -44.8866 C   0  0  0  0  0  0  0  0  0  0  0  0
 -100.2954   55.4253  -45.6421 C   0  0  0  0  0  0  0  0  0  0  0  0
 -100.9552   56.7732  -45.7305 N   0  0  0  0  0  0  0  0  0  0  0  0
 -103.0440   58.6494  -46.3133 N   0  0  0  0  0  0  0  0  0  0  0  0
 -100.2718   57.4565  -45.3759 H   0  0  0  0  0  0  0  0  0  0  0  0
 -103.7288   57.9679  -46.6688 H   0  0  0  0  0  0  0  0  0  0  0  0
 12 13  3  0  0  0
 12  8  1  0  0  0
 13 15  1  0  0  0
  5  6  1  0  0  0
  5  9  2  0  0  0
  6 10  2  0  0  0
 23 24  1  0  0  0
 23 26  2  0  0  0
 24 28  2  0  0  0
  7  8  2  0  0  0
  7  9  1  0  0  0
 25 27  2  0  0  0
 25 28  1  0  0  0
 14 15  2  0  0  0
 14 20  1  0  0  0
  8 10  1  0  0  0
 15 22  1  0  0  0
  9  1  1  0  0  0
 10 11  1  0  0  0
 26 27  1  0  0  0
 26 33  1  0  0  0
 27 29  1  0  0  0
 28  2  1  0  0  0
 16 17  1  0  0  0
 16 20  2  0  0  0
 16 22  1  0  0  0
 17 18  2  0  0  0
 18 19  1  0  0  0
 19 21  2  0  0  0
  1  2  1  0  0  0
  1  3  2  0  0  0
 34 36  1  0  0  0
 34 39  1  0  0  0
 35 37  1  0  0  0
 35 39  1  0  0  0
 36 40  1  0  0  0
 37 40  1  0  0  0
 38 39  1  0  0  0
 33 40  1  0  0  0
 29 30  1  0  0  0
 29 31  1  0  0  0
 29 32  1  0  0  0
 21 22  1  0  0  0
  2  4  1  0  0  0
 39 41  1  0  0  0
 40 42  1  0  0  0
M  CHG 1  39   1
M  CHG 1  40   1
M  END
> <minimizedAffinity>
-8.46127

> <CNNscore>
0.1070602760

> <CNNaffinity>
6.1969327927

> <CNN_VS>
0.6634453535

> <CNNaffinity_variance>
0.5445748568

$$$$
